<?xml version="1.0" encoding="UTF-8"?>
<edges>
    <edge id="e1" from="n1" to="n2" priority="5" numLanes="1" speed="8.33" shape="72.8289700,19.1076300 72.8289700,19.1077900 72.8289800,19.1079700 72.8289800,19.1081300 72.8289800,19.1082700 72.8289800,19.1083300 72.8289800,19.1083700 72.8289800,19.1084500 72.8289800,19.1086200"/>
    <edge id="e2" from="n2" to="n1" priority="5" numLanes="1" speed="8.33" shape="72.8289800,19.1086200 72.8289800,19.1084500 72.8289800,19.1083700 72.8289800,19.1083300 72.8289800,19.1082700 72.8289800,19.1081300 72.8289800,19.1079700 72.8289700,19.1077900 72.8289700,19.1076300"/>
    <edge id="e3" from="n2" to="n3" priority="5" numLanes="1" speed="8.33" shape="72.8290700,19.1089000 72.8293000,19.1089000 72.8294200,19.1089000 72.8298700,19.1089000"/>
    <edge id="e4" from="n3" to="n2" priority="5" numLanes="1" speed="8.33" shape="72.8298700,19.1089000 72.8294200,19.1089000 72.8293000,19.1089000 72.8290700,19.1089000"/>
    <edge id="e5" from="n3" to="n4" priority="5" numLanes="1" speed="8.33" shape="72.8299700,19.1087200 72.8299700,19.1085300 72.8299700,19.1083700 72.8299700,19.1082100 72.8299700,19.1080400 72.8299700,19.1079100 72.8299600,19.1077300 72.8299600,19.1075500 72.8299600,19.1074200"/>
    <edge id="e6" from="n4" to="n3" priority="5" numLanes="1" speed="8.33" shape="72.8299600,19.1074200 72.8299600,19.1075500 72.8299600,19.1077300 72.8299700,19.1079100 72.8299700,19.1080400 72.8299700,19.1082100 72.8299700,19.1083700 72.8299700,19.1085300 72.8299700,19.1087200"/>
    <edge id="e7" from="n4" to="n5" priority="8" numLanes="2" speed="11.11" shape="72.8303700,19.1071800 72.8308100,19.1071800 72.8310700,19.1071800 72.8312800,19.1071700 72.8316200,19.1071700"/>
    <edge id="e8" from="n5" to="n4" priority="8" numLanes="2" speed="11.11" shape="72.8316200,19.1071700 72.8312800,19.1071700 72.8310700,19.1071800 72.8308100,19.1071800 72.8303700,19.1071800"/>
    <edge id="e9" from="n5" to="n6" priority="3" numLanes="1" speed="5.56"/>
    <edge id="e10" from="n6" to="n5" priority="3" numLanes="1" speed="5.56"/>
    <edge id="e11" from="n7" to="n8" priority="5" numLanes="1" speed="8.33" shape="72.8462100,19.1190900 72.8462000,19.1193600 72.8462000,19.1193900"/>
    <edge id="e12" from="n8" to="n7" priority="5" numLanes="1" speed="8.33" shape="72.8462000,19.1193900 72.8462000,19.1193600 72.8462100,19.1190900"/>
    <edge id="e13" from="n8" to="n9" priority="3" numLanes="1" speed="5.56"/>
    <edge id="e14" from="n9" to="n8" priority="3" numLanes="1" speed="5.56"/>
    <edge id="e15" from="n9" to="n10" priority="8" numLanes="2" speed="11.11" shape="72.8454400,19.1196000 72.8452200,19.1190100 72.8451000,19.1186400 72.8450100,19.1184000 72.8447600,19.1176500 72.8446200,19.1172200 72.8445200,19.1169800 72.8443400,19.1167000"/>
    <edge id="e16" from="n10" to="n9" priority="8" numLanes="2" speed="11.11" shape="72.8443400,19.1167000 72.8445200,19.1169800 72.8446200,19.1172200 72.8447600,19.1176500 72.8450100,19.1184000 72.8451000,19.1186400 72.8452200,19.1190100 72.8454400,19.1196000"/>
    <edge id="e17" from="n10" to="n11" priority="3" numLanes="1" speed="5.56" shape="72.8442600,19.1164000"/>
    <edge id="e18" from="n11" to="n10" priority="3" numLanes="1" speed="5.56" shape="72.8442600,19.1164000"/>
    <edge id="e19" from="n11" to="n12" priority="11" numLanes="2" speed="16.67" shape="72.8445300,19.1162100 72.8445700,19.1161900 72.8446200,19.1161800 72.8451300,19.1160100 72.8452100,19.1159700 72.8455200,19.1158700 72.8456900,19.1158200 72.8459500,19.1157700 72.8463000,19.1157100 72.8465900,19.1156700 72.8468600,19.1156400 72.8472400,19.1155600 72.8473500,19.1155400 72.8474200,19.1155200 72.8480400,19.1153600 72.8482900,19.1153200 72.8486100,19.1153200 72.8487500,19.1153200 72.8488500,19.1153200 72.8489100,19.1153300 72.8489200,19.1153300 72.8489600,19.1153300 72.8490100,19.1153500 72.8490500,19.1153700 72.8490900,19.1154200 72.8491200,19.1154400"/>
    <edge id="e20" from="n12" to="n11" priority="11" numLanes="2" speed="16.67" shape="72.8491200,19.1154400 72.8490900,19.1154200 72.8490500,19.1153700 72.8490100,19.1153500 72.8489600,19.1153300 72.8489200,19.1153300 72.8489100,19.1153300 72.8488500,19.1153200 72.8487500,19.1153200 72.8486100,19.1153200 72.8482900,19.1153200 72.8480400,19.1153600 72.8474200,19.1155200 72.8473500,19.1155400 72.8472400,19.1155600 72.8468600,19.1156400 72.8465900,19.1156700 72.8463000,19.1157100 72.8459500,19.1157700 72.8456900,19.1158200 72.8455200,19.1158700 72.8452100,19.1159700 72.8451300,19.1160100 72.8446200,19.1161800 72.8445700,19.1161900 72.8445300,19.1162100"/>
    <edge id="e21" from="n12" to="n13" priority="11" numLanes="2" speed="16.67" shape="72.8492100,19.1154700 72.8492600,19.1154800 72.8493900,19.1154700 72.8497100,19.1154300 72.8498900,19.1154100 72.8499600,19.1154000 72.8500200,19.1153900 72.8502700,19.1153300 72.8503400,19.1153000 72.8506000,19.1152300 72.8509200,19.1151200 72.8510400,19.1150700 72.8515900,19.1147500 72.8517000,19.1146800 72.8521500,19.1143800 72.8522500,19.1143300 72.8527900,19.1139800 72.8529000,19.1139100 72.8531100,19.1138000 72.8534400,19.1136100 72.8536900,19.1135200 72.8540000,19.1134800 72.8543200,19.1135700 72.8543900,19.1136100"/>
    <edge id="e22" from="n13" to="n12" priority="11" numLanes="2" speed="16.67" shape="72.8543900,19.1136100 72.8543200,19.1135700 72.8540000,19.1134800 72.8536900,19.1135200 72.8534400,19.1136100 72.8531100,19.1138000 72.8529000,19.1139100 72.8527900,19.1139800 72.8522500,19.1143300 72.8521500,19.1143800 72.8517000,19.1146800 72.8515900,19.1147500 72.8510400,19.1150700 72.8509200,19.1151200 72.8506000,19.1152300 72.8503400,19.1153000 72.8502700,19.1153300 72.8500200,19.1153900 72.8499600,19.1154000 72.8498900,19.1154100 72.8497100,19.1154300 72.8493900,19.1154700 72.8492600,19.1154800 72.8492100,19.1154700"/>
    <edge id="e23" from="n13" to="n14" priority="8" numLanes="2" speed="11.11" shape="72.8544900,19.1137200 72.8545600,19.1140100 72.8547900,19.1156300 72.8548300,19.1159700 72.8548700,19.1162100 72.8549200,19.1165800"/>
    <edge id="e24" from="n14" to="n13" priority="8" numLanes="2" speed="11.11" shape="72.8549200,19.1165800 72.8548700,19.1162100 72.8548300,19.1159700 72.8547900,19.1156300 72.8545600,19.1140100 72.8544900,19.1137200"/>
    <edge id="e25" from="n14" to="n15" priority="5" numLanes="1" speed="8.33" shape="72.8550800,19.1165900 72.8551900,19.1165200 72.8553100,19.1164500 72.8555200,19.1163300 72.8557100,19.1162100"/>
    <edge id="e26" from="n15" to="n14" priority="5" numLanes="1" speed="8.33" shape="72.8557100,19.1162100 72.8555200,19.1163300 72.8553100,19.1164500 72.8551900,19.1165200 72.8550800,19.1165900"/>
    <edge id="e27" from="n15" to="n16" priority="8" numLanes="2" speed="11.11" shape="72.8557800,19.1162100 72.8557900,19.1162500 72.8559500,19.1166300 72.8559500,19.1169500 72.8559500,19.1170000 72.8559700,19.1171400 72.8560000,19.1172200 72.8560100,19.1172400 72.8560900,19.1173600 72.8563200,19.1176000 72.8565900,19.1179000 72.8566900,19.1180200 72.8567000,19.1180300 72.8567200,19.1180700"/>
    <edge id="e28" from="n16" to="n15" priority="8" numLanes="2" speed="11.11" shape="72.8567200,19.1180700 72.8567000,19.1180300 72.8566900,19.1180200 72.8565900,19.1179000 72.8563200,19.1176000 72.8560900,19.1173600 72.8560100,19.1172400 72.8560000,19.1172200 72.8559700,19.1171400 72.8559500,19.1170000 72.8559500,19.1169500 72.8559500,19.1166300 72.8557900,19.1162500 72.8557800,19.1162100"/>
    <edge id="e29" from="n16" to="n17" priority="5" numLanes="1" speed="8.33" shape="72.8571000,19.1186000 72.8576600,19.1185100 72.8578000,19.1184900 72.8580500,19.1184900 72.8582000,19.1185100 72.8583700,19.1185000 72.8584200,19.1184900 72.8584800,19.1184800"/>
    <edge id="e30" from="n17" to="n16" priority="5" numLanes="1" speed="8.33" shape="72.8584800,19.1184800 72.8584200,19.1184900 72.8583700,19.1185000 72.8582000,19.1185100 72.8580500,19.1184900 72.8578000,19.1184900 72.8576600,19.1185100 72.8571000,19.1186000"/>
    <edge id="e31" from="n17" to="n18" priority="3" numLanes="1" speed="5.56" shape="72.8586900,19.1183400"/>
    <edge id="e32" from="n18" to="n17" priority="3" numLanes="1" speed="5.56" shape="72.8586900,19.1183400"/>
    <edge id="e33" from="n19" to="n20" priority="3" numLanes="1" speed="5.56" shape="72.8645200,19.1223400"/>
    <edge id="e34" from="n20" to="n19" priority="3" numLanes="1" speed="5.56" shape="72.8645200,19.1223400"/>
    <edge id="e35" from="n20" to="n21" priority="3" numLanes="1" speed="5.56" shape="72.8644100,19.1224800 72.8643500,19.1225000"/>
    <edge id="e36" from="n21" to="n20" priority="3" numLanes="1" speed="5.56" shape="72.8643500,19.1225000 72.8644100,19.1224800"/>
    <edge id="e37" from="n21" to="n22" priority="8" numLanes="2" speed="11.11" shape="72.8641900,19.1231400 72.8641900,19.1234500 72.8642000,19.1235800 72.8642500,19.1238500 72.8643400,19.1241500 72.8644500,19.1244300 72.8645300,19.1246100 72.8645600,19.1246900"/>
    <edge id="e38" from="n22" to="n21" priority="8" numLanes="2" speed="11.11" shape="72.8645600,19.1246900 72.8645300,19.1246100 72.8644500,19.1244300 72.8643400,19.1241500 72.8642500,19.1238500 72.8642000,19.1235800 72.8641900,19.1234500 72.8641900,19.1231400"/>
    <edge id="e39" from="n23" to="n24" priority="5" numLanes="1" speed="8.33" shape="72.8648400,19.1251100 72.8649500,19.1251300 72.8651100,19.1251600 72.8653100,19.1251900 72.8661400,19.1253300"/>
    <edge id="e40" from="n24" to="n23" priority="5" numLanes="1" speed="8.33" shape="72.8661400,19.1253300 72.8653100,19.1251900 72.8651100,19.1251600 72.8649500,19.1251300 72.8648400,19.1251100"/>
    <edge id="e41" from="n24" to="n25" priority="5" numLanes="1" speed="8.33" shape="72.8660500,19.1252300 72.8651400,19.1251000 72.8650400,19.1250800"/>
    <edge id="e42" from="n25" to="n24" priority="5" numLanes="1" speed="8.33" shape="72.8650400,19.1250800 72.8651400,19.1251000 72.8660500,19.1252300"/>
    <edge id="e43" from="n26" to="n27" priority="5" numLanes="1" speed="8.33" shape="72.8256300,19.1048200 72.8263800,19.1048900"/>
    <edge id="e44" from="n27" to="n26" priority="5" numLanes="1" speed="8.33" shape="72.8263800,19.1048900 72.8256300,19.1048200"/>
    <edge id="e45" from="n27" to="n28" priority="8" numLanes="2" speed="11.11" shape="72.8265400,19.1051400 72.8265200,19.1052600 72.8264800,19.1056700 72.8264900,19.1057500 72.8264600,19.1059000 72.8263800,19.1066000 72.8263500,19.1068300 72.8263300,19.1071300 72.8263300,19.1071700 72.8263300,19.1071900 72.8263400,19.1074000"/>
    <edge id="e46" from="n28" to="n27" priority="8" numLanes="2" speed="11.11" shape="72.8263400,19.1074000 72.8263300,19.1071900 72.8263300,19.1071700 72.8263300,19.1071300 72.8263500,19.1068300 72.8263800,19.1066000 72.8264600,19.1059000 72.8264900,19.1057500 72.8264800,19.1056700 72.8265200,19.1052600 72.8265400,19.1051400"/>
    <edge id="e47" from="n28" to="n29" priority="3" numLanes="1" speed="5.56" shape="72.8263100,19.1074700 72.8262300,19.1074400"/>
    <edge id="e48" from="n29" to="n28" priority="3" numLanes="1" speed="5.56" shape="72.8262300,19.1074400 72.8263100,19.1074700"/>
    <edge id="e49" from="n30" to="n31" priority="3" numLanes="1" speed="5.56"/>
    <edge id="e50" from="n31" to="n30" priority="3" numLanes="1" speed="5.56"/>
    <edge id="e51" from="n31" to="n32" priority="5" numLanes="1" speed="8.33" shape="72.8503400,19.1229200 72.8507100,19.1229400 72.8509900,19.1229400"/>
    <edge id="e52" from="n32" to="n31" priority="5" numLanes="1" speed="8.33" shape="72.8509900,19.1229400 72.8507100,19.1229400 72.8503400,19.1229200"/>
    <edge id="e53" from="n32" to="n33" priority="8" numLanes="2" speed="11.11" shape="72.8511300,19.1234000 72.8511800,19.1236300 72.8511900,19.1237000 72.8514000,19.1245800 72.8515100,19.1249200 72.8515400,19.1249700 72.8515900,19.1250100 72.8516800,19.1250700 72.8519500,19.1251900 72.8522500,19.1253100 72.8525200,19.1254200 72.8528000,19.1255300 72.8529700,19.1256000 72.8530800,19.1256400 72.8533400,19.1257500 72.8533900,19.1257600"/>
    <edge id="e54" from="n33" to="n32" priority="8" numLanes="2" speed="11.11" shape="72.8533900,19.1257600 72.8533400,19.1257500 72.8530800,19.1256400 72.8529700,19.1256000 72.8528000,19.1255300 72.8525200,19.1254200 72.8522500,19.1253100 72.8519500,19.1251900 72.8516800,19.1250700 72.8515900,19.1250100 72.8515400,19.1249700 72.8515100,19.1249200 72.8514000,19.1245800 72.8511900,19.1237000 72.8511800,19.1236300 72.8511300,19.1234000"/>
    <edge id="e55" from="n33" to="n34" priority="3" numLanes="1" speed="5.56"/>
    <edge id="e56" from="n34" to="n33" priority="3" numLanes="1" speed="5.56"/>
    <edge id="e57" from="n34" to="n35" priority="5" numLanes="1" speed="8.33" shape="72.8541300,19.1252600 72.8544400,19.1252700 72.8545600,19.1252500 72.8548000,19.1251700 72.8548600,19.1251400 72.8549600,19.1250900"/>
    <edge id="e58" from="n35" to="n34" priority="5" numLanes="1" speed="8.33" shape="72.8549600,19.1250900 72.8548600,19.1251400 72.8548000,19.1251700 72.8545600,19.1252500 72.8544400,19.1252700 72.8541300,19.1252600"/>
    <edge id="e59" from="n36" to="n37" priority="5" numLanes="1" speed="8.33" shape="72.8381500,19.1128900 72.8384000,19.1129700 72.8384500,19.1129900 72.8387700,19.1131200 72.8388400,19.1131400 72.8391000,19.1132600"/>
    <edge id="e60" from="n37" to="n36" priority="5" numLanes="1" speed="8.33" shape="72.8391000,19.1132600 72.8388400,19.1131400 72.8387700,19.1131200 72.8384500,19.1129900 72.8384000,19.1129700 72.8381500,19.1128900"/>
    <edge id="e61" from="n37" to="n38" priority="8" numLanes="2" speed="11.11" shape="72.8391800,19.1133900 72.8392600,19.1135700 72.8393600,19.1138000 72.8394100,19.1139400 72.8395600,19.1143100 72.8396300,19.1144900 72.8398500,19.1150700 72.8398800,19.1151500 72.8399700,19.1154100 72.8400700,19.1157000"/>
    <edge id="e62" from="n38" to="n37" priority="8" numLanes="2" speed="11.11" shape="72.8400700,19.1157000 72.8399700,19.1154100 72.8398800,19.1151500 72.8398500,19.1150700 72.8396300,19.1144900 72.8395600,19.1143100 72.8394100,19.1139400 72.8393600,19.1138000 72.8392600,19.1135700 72.8391800,19.1133900"/>
    <edge id="e63" from="n38" to="n39" priority="3" numLanes="1" speed="5.56" shape="72.8402700,19.1161700 72.8402700,19.1162100"/>
    <edge id="e64" from="n39" to="n38" priority="3" numLanes="1" speed="5.56" shape="72.8402700,19.1162100 72.8402700,19.1161700"/>
    <edge id="e65" from="n39" to="n40" priority="11" numLanes="2" speed="16.67" shape="72.8403100,19.1162800 72.8404300,19.1162800 72.8408000,19.1163100 72.8413900,19.1163500 72.8416100,19.1163700 72.8421400,19.1164000 72.8430100,19.1163800 72.8433800,19.1163600 72.8435500,19.1163300 72.8436200,19.1163400 72.8437300,19.1163600 72.8438800,19.1164000 72.8439900,19.1164100 72.8441200,19.1164100 72.8442000,19.1164100 72.8442600,19.1164000 72.8443800,19.1163900 72.8449100,19.1162100 72.8451800,19.1161200 72.8453000,19.1160700 72.8453600,19.1160400"/>
    <edge id="e66" from="n40" to="n39" priority="11" numLanes="2" speed="16.67" shape="72.8453600,19.1160400 72.8453000,19.1160700 72.8451800,19.1161200 72.8449100,19.1162100 72.8443800,19.1163900 72.8442600,19.1164000 72.8442000,19.1164100 72.8441200,19.1164100 72.8439900,19.1164100 72.8438800,19.1164000 72.8437300,19.1163600 72.8436200,19.1163400 72.8435500,19.1163300 72.8433800,19.1163600 72.8430100,19.1163800 72.8421400,19.1164000 72.8416100,19.1163700 72.8413900,19.1163500 72.8408000,19.1163100 72.8404300,19.1162800 72.8403100,19.1162800"/>
    <edge id="e67" from="n40" to="n41" priority="8" numLanes="2" speed="11.11" shape="72.8456900,19.1158200 72.8459500,19.1157700 72.8463000,19.1157100 72.8465900,19.1156700 72.8468600,19.1156400 72.8472400,19.1155600 72.8473500,19.1155400 72.8474200,19.1155200 72.8480400,19.1153600 72.8482900,19.1153200 72.8486100,19.1153200 72.8487500,19.1153200 72.8488500,19.1153200"/>
    <edge id="e68" from="n41" to="n40" priority="8" numLanes="2" speed="11.11" shape="72.8488500,19.1153200 72.8487500,19.1153200 72.8486100,19.1153200 72.8482900,19.1153200 72.8480400,19.1153600 72.8474200,19.1155200 72.8473500,19.1155400 72.8472400,19.1155600 72.8468600,19.1156400 72.8465900,19.1156700 72.8463000,19.1157100 72.8459500,19.1157700 72.8456900,19.1158200"/>
    <edge id="e69" from="n41" to="n42" priority="11" numLanes="2" speed="16.67" shape="72.8488400,19.1152400 72.8487600,19.1152400 72.8482100,19.1152600 72.8480500,19.1152900 72.8474000,19.1154600 72.8473400,19.1154800 72.8472500,19.1155000 72.8469500,19.1155600 72.8465700,19.1156100 72.8462800,19.1156400 72.8459100,19.1157000 72.8455900,19.1157700 72.8454700,19.1158000 72.8451000,19.1159200 72.8445500,19.1160900 72.8444400,19.1161200 72.8442900,19.1161700 72.8442400,19.1161900"/>
    <edge id="e70" from="n42" to="n41" priority="11" numLanes="2" speed="16.67" shape="72.8442400,19.1161900 72.8442900,19.1161700 72.8444400,19.1161200 72.8445500,19.1160900 72.8451000,19.1159200 72.8454700,19.1158000 72.8455900,19.1157700 72.8459100,19.1157000 72.8462800,19.1156400 72.8465700,19.1156100 72.8469500,19.1155600 72.8472500,19.1155000 72.8473400,19.1154800 72.8474000,19.1154600 72.8480500,19.1152900 72.8482100,19.1152600 72.8487600,19.1152400 72.8488400,19.1152400"/>
    <edge id="e71" from="n42" to="n43" priority="3" numLanes="1" speed="5.56" shape="72.8441900,19.1162100"/>
    <edge id="e72" from="n43" to="n42" priority="3" numLanes="1" speed="5.56" shape="72.8441900,19.1162100"/>
    <edge id="e73" from="n43" to="n44" priority="5" numLanes="1" speed="8.33" shape="72.8439500,19.1162100 72.8439300,19.1161800 72.8438900,19.1161300 72.8436000,19.1157800 72.8430100,19.1150800"/>
    <edge id="e74" from="n44" to="n43" priority="5" numLanes="1" speed="8.33" shape="72.8430100,19.1150800 72.8436000,19.1157800 72.8438900,19.1161300 72.8439300,19.1161800 72.8439500,19.1162100"/>
    <edge id="e75" from="n45" to="n46" priority="3" numLanes="1" speed="5.56" shape="72.8468100,19.1129000 72.8468400,19.1130900"/>
    <edge id="e76" from="n46" to="n45" priority="3" numLanes="1" speed="5.56" shape="72.8468400,19.1130900 72.8468100,19.1129000"/>
    <edge id="e77" from="n46" to="n47" priority="5" numLanes="1" speed="8.33" shape="72.8470200,19.1131200 72.8470700,19.1131200 72.8471300,19.1131400 72.8473100,19.1132300"/>
    <edge id="e78" from="n47" to="n46" priority="5" numLanes="1" speed="8.33" shape="72.8473100,19.1132300 72.8471300,19.1131400 72.8470700,19.1131200 72.8470200,19.1131200"/>
    <edge id="e79" from="n47" to="n48" priority="8" numLanes="2" speed="11.11" shape="72.8475800,19.1134900 72.8475500,19.1135800 72.8475000,19.1137600 72.8474100,19.1141900 72.8473200,19.1147500 72.8473200,19.1148000 72.8473100,19.1149900 72.8473100,19.1153000 72.8473200,19.1153600 72.8473400,19.1154800 72.8473500,19.1155400 72.8473900,19.1156600 72.8474400,19.1158000 72.8476200,19.1162100 72.8476200,19.1162100"/>
    <edge id="e80" from="n48" to="n47" priority="8" numLanes="2" speed="11.11" shape="72.8476200,19.1162100 72.8476200,19.1162100 72.8474400,19.1158000 72.8473900,19.1156600 72.8473500,19.1155400 72.8473400,19.1154800 72.8473200,19.1153600 72.8473100,19.1153000 72.8473100,19.1149900 72.8473200,19.1148000 72.8473200,19.1147500 72.8474100,19.1141900 72.8475000,19.1137600 72.8475500,19.1135800 72.8475800,19.1134900"/>
    <edge id="e81" from="n48" to="n49" priority="3" numLanes="1" speed="5.56" shape="72.8477100,19.1162100 72.8477100,19.1162100 72.8475000,19.1157700"/>
    <edge id="e82" from="n49" to="n48" priority="3" numLanes="1" speed="5.56" shape="72.8475000,19.1157700 72.8477100,19.1162100 72.8477100,19.1162100"/>
    <edge id="e83" from="n49" to="n50" priority="5" numLanes="1" speed="8.33" shape="72.8482300,19.1154900 72.8484200,19.1154700 72.8486200,19.1154900"/>
    <edge id="e84" from="n50" to="n49" priority="5" numLanes="1" speed="8.33" shape="72.8486200,19.1154900 72.8484200,19.1154700 72.8482300,19.1154900"/>
    <edge id="e85" from="n50" to="n41" priority="3" numLanes="1" speed="5.56"/>
    <edge id="e86" from="n41" to="n50" priority="3" numLanes="1" speed="5.56"/>
    <edge id="e87" from="n51" to="n52" priority="8" numLanes="2" speed="11.11" shape="72.8263600,19.1173200 72.8264600,19.1172200 72.8268700,19.1167900 72.8271500,19.1165200 72.8273000,19.1163000 72.8273700,19.1162100"/>
    <edge id="e88" from="n52" to="n51" priority="8" numLanes="2" speed="11.11" shape="72.8273700,19.1162100 72.8273000,19.1163000 72.8271500,19.1165200 72.8268700,19.1167900 72.8264600,19.1172200 72.8263600,19.1173200"/>
    <edge id="e89" from="n52" to="n53" priority="5" numLanes="1" speed="8.33" shape="72.8275500,19.1160900 72.8276300,19.1160900 72.8276600,19.1160900 72.8278600,19.1160800 72.8280900,19.1160800 72.8282700,19.1160800 72.8284400,19.1160800 72.8285100,19.1160800 72.8286100,19.1160800 72.8286900,19.1160800 72.8288900,19.1160800 72.8289400,19.1160800 72.8290200,19.1160800"/>
    <edge id="e90" from="n53" to="n52" priority="5" numLanes="1" speed="8.33" shape="72.8290200,19.1160800 72.8289400,19.1160800 72.8288900,19.1160800 72.8286900,19.1160800 72.8286100,19.1160800 72.8285100,19.1160800 72.8284400,19.1160800 72.8282700,19.1160800 72.8280900,19.1160800 72.8278600,19.1160800 72.8276600,19.1160900 72.8276300,19.1160900 72.8275500,19.1160900"/>
    <edge id="e91" from="n53" to="n54" priority="3" numLanes="1" speed="5.56" shape="72.8294200,19.1161400 72.8294500,19.1161500"/>
    <edge id="e92" from="n54" to="n53" priority="3" numLanes="1" speed="5.56" shape="72.8294500,19.1161500 72.8294200,19.1161400"/>
    <edge id="e93" from="n54" to="n55" priority="3" numLanes="1" speed="5.56" shape="72.8296700,19.1163500"/>
    <edge id="e94" from="n55" to="n54" priority="3" numLanes="1" speed="5.56" shape="72.8296700,19.1163500"/>
    <edge id="e95" from="n55" to="n56" priority="11" numLanes="2" speed="16.67" shape="72.8298100,19.1166100 72.8298000,19.1171200 72.8298100,19.1172200 72.8298100,19.1176200 72.8298100,19.1181600 72.8298200,19.1194200 72.8298100,19.1198900 72.8298100,19.1201400 72.8298200,19.1208000 72.8298200,19.1209300 72.8298200,19.1211600 72.8298200,19.1212300 72.8298300,19.1213400 72.8298400,19.1214300 72.8298600,19.1215700"/>
    <edge id="e96" from="n56" to="n55" priority="11" numLanes="2" speed="16.67" shape="72.8298600,19.1215700 72.8298400,19.1214300 72.8298300,19.1213400 72.8298200,19.1212300 72.8298200,19.1211600 72.8298200,19.1209300 72.8298200,19.1208000 72.8298100,19.1201400 72.8298100,19.1198900 72.8298200,19.1194200 72.8298100,19.1181600 72.8298100,19.1176200 72.8298100,19.1172200 72.8298000,19.1171200 72.8298100,19.1166100"/>
    <edge id="e97" from="n56" to="n57" priority="8" numLanes="2" speed="11.11" shape="72.8295900,19.1217400 72.8292300,19.1218400 72.8280600,19.1221300 72.8279400,19.1221600 72.8279200,19.1221600 72.8278700,19.1221700 72.8278100,19.1221700 72.8277700,19.1221600 72.8275600,19.1220700 72.8272700,19.1219600 72.8272300,19.1219300"/>
    <edge id="e98" from="n57" to="n56" priority="8" numLanes="2" speed="11.11" shape="72.8272300,19.1219300 72.8272700,19.1219600 72.8275600,19.1220700 72.8277700,19.1221600 72.8278100,19.1221700 72.8278700,19.1221700 72.8279200,19.1221600 72.8279400,19.1221600 72.8280600,19.1221300 72.8292300,19.1218400 72.8295900,19.1217400"/>
    <edge id="e99" from="n57" to="n58" priority="5" numLanes="1" speed="8.33" shape="72.8271400,19.1218500 72.8271300,19.1218400 72.8270700,19.1217300 72.8268800,19.1213200 72.8267800,19.1211100 72.8266900,19.1209200 72.8266000,19.1208100"/>
    <edge id="e100" from="n58" to="n57" priority="5" numLanes="1" speed="8.33" shape="72.8266000,19.1208100 72.8266900,19.1209200 72.8267800,19.1211100 72.8268800,19.1213200 72.8270700,19.1217300 72.8271300,19.1218400 72.8271400,19.1218500"/>
    <edge id="e101" from="n58" to="n59" priority="3" numLanes="1" speed="5.56" shape="72.8263000,19.1210300"/>
    <edge id="e102" from="n59" to="n58" priority="3" numLanes="1" speed="5.56" shape="72.8263000,19.1210300"/>
    <edge id="e103" from="n59" to="n60" priority="8" numLanes="2" speed="11.11" shape="72.8257800,19.1210300 72.8247800,19.1202800 72.8247000,19.1202600 72.8245800,19.1202600 72.8242600,19.1202600 72.8239100,19.1203100 72.8237600,19.1203700 72.8236300,19.1204400"/>
    <edge id="e104" from="n60" to="n59" priority="8" numLanes="2" speed="11.11" shape="72.8236300,19.1204400 72.8237600,19.1203700 72.8239100,19.1203100 72.8242600,19.1202600 72.8245800,19.1202600 72.8247000,19.1202600 72.8247800,19.1202800 72.8257800,19.1210300"/>
    <edge id="e105" from="n61" to="n62" priority="3" numLanes="1" speed="5.56"/>
    <edge id="e106" from="n62" to="n61" priority="3" numLanes="1" speed="5.56"/>
    <edge id="e107" from="n62" to="n63" priority="11" numLanes="2" speed="16.67" shape="72.8506100,19.1193800 72.8510100,19.1191300 72.8510700,19.1190900 72.8512100,19.1190100 72.8515100,19.1188200 72.8517000,19.1187100 72.8519800,19.1185200 72.8522100,19.1183800 72.8524600,19.1182200 72.8527200,19.1180600 72.8528900,19.1179600 72.8531300,19.1178100 72.8532500,19.1177400 72.8536600,19.1175000 72.8537600,19.1174300 72.8540400,19.1172700 72.8544100,19.1170600 72.8545100,19.1170000"/>
    <edge id="e108" from="n63" to="n62" priority="11" numLanes="2" speed="16.67" shape="72.8545100,19.1170000 72.8544100,19.1170600 72.8540400,19.1172700 72.8537600,19.1174300 72.8536600,19.1175000 72.8532500,19.1177400 72.8531300,19.1178100 72.8528900,19.1179600 72.8527200,19.1180600 72.8524600,19.1182200 72.8522100,19.1183800 72.8519800,19.1185200 72.8517000,19.1187100 72.8515100,19.1188200 72.8512100,19.1190100 72.8510700,19.1190900 72.8510100,19.1191300 72.8506100,19.1193800"/>
    <edge id="e109" from="n14" to="n64" priority="8" numLanes="2" speed="11.11" shape="72.8549600,19.1168200 72.8550800,19.1175700 72.8551200,19.1178500 72.8552500,19.1185500 72.8554700,19.1195300 72.8554800,19.1195700"/>
    <edge id="e110" from="n64" to="n14" priority="8" numLanes="2" speed="11.11" shape="72.8554800,19.1195700 72.8554700,19.1195300 72.8552500,19.1185500 72.8551200,19.1178500 72.8550800,19.1175700 72.8549600,19.1168200"/>
    <edge id="e111" from="n64" to="n65" priority="8" numLanes="2" speed="11.11" shape="72.8555400,19.1199000 72.8557500,19.1209400 72.8558600,19.1215000"/>
    <edge id="e112" from="n65" to="n64" priority="8" numLanes="2" speed="11.11" shape="72.8558600,19.1215000 72.8557500,19.1209400 72.8555400,19.1199000"/>
    <edge id="e113" from="n66" to="n67" priority="3" numLanes="1" speed="5.56"/>
    <edge id="e114" from="n67" to="n66" priority="3" numLanes="1" speed="5.56"/>
    <edge id="e115" from="n67" to="n68" priority="5" numLanes="1" speed="8.33" shape="72.8408400,19.1243600 72.8409300,19.1243600 72.8415600,19.1243100"/>
    <edge id="e116" from="n68" to="n67" priority="5" numLanes="1" speed="8.33" shape="72.8415600,19.1243100 72.8409300,19.1243600 72.8408400,19.1243600"/>
    <edge id="e117" from="n69" to="n70" priority="5" numLanes="1" speed="8.33" shape="72.8417300,19.1247900 72.8416000,19.1250800"/>
    <edge id="e118" from="n70" to="n69" priority="5" numLanes="1" speed="8.33" shape="72.8416000,19.1250800 72.8417300,19.1247900"/>
    <edge id="e119" from="n70" to="n71" priority="8" numLanes="2" speed="11.11" shape="72.8416100,19.1251600 72.8416400,19.1251800 72.8417400,19.1252100 72.8418600,19.1252600 72.8423000,19.1254500 72.8425400,19.1255600 72.8428300,19.1256700 72.8428700,19.1256800 72.8433500,19.1258600 72.8435600,19.1259400 72.8438800,19.1260500 72.8444800,19.1262900 72.8445800,19.1262900 72.8446800,19.1263200 72.8447900,19.1263500 72.8451700,19.1263400 72.8455700,19.1263700"/>
    <edge id="e120" from="n71" to="n70" priority="8" numLanes="2" speed="11.11" shape="72.8455700,19.1263700 72.8451700,19.1263400 72.8447900,19.1263500 72.8446800,19.1263200 72.8445800,19.1262900 72.8444800,19.1262900 72.8438800,19.1260500 72.8435600,19.1259400 72.8433500,19.1258600 72.8428700,19.1256800 72.8428300,19.1256700 72.8425400,19.1255600 72.8423000,19.1254500 72.8418600,19.1252600 72.8417400,19.1252100 72.8416400,19.1251800 72.8416100,19.1251600"/>
    <edge id="e121" from="n71" to="n72" priority="3" numLanes="1" speed="5.56" shape="72.8460200,19.1261800 72.8460800,19.1261200"/>
    <edge id="e122" from="n72" to="n71" priority="3" numLanes="1" speed="5.56" shape="72.8460800,19.1261200 72.8460200,19.1261800"/>
    <edge id="e123" from="n72" to="n73" priority="5" numLanes="1" speed="8.33" shape="72.8461400,19.1260800 72.8461900,19.1260500 72.8465200,19.1259100 72.8468200,19.1258200"/>
    <edge id="e124" from="n73" to="n72" priority="5" numLanes="1" speed="8.33" shape="72.8468200,19.1258200 72.8465200,19.1259100 72.8461900,19.1260500 72.8461400,19.1260800"/>
    <edge id="e125" from="n73" to="n74" priority="5" numLanes="1" speed="8.33" shape="72.8469800,19.1264200"/>
    <edge id="e126" from="n74" to="n73" priority="5" numLanes="1" speed="8.33" shape="72.8469800,19.1264200"/>
    <edge id="e127" from="n75" to="n76" priority="5" numLanes="1" speed="8.33"/>
    <edge id="e128" from="n76" to="n75" priority="5" numLanes="1" speed="8.33"/>
    <edge id="e129" from="n76" to="n27" priority="5" numLanes="1" speed="8.33" shape="72.8268000,19.1034000 72.8267400,19.1040200 72.8267000,19.1044600 72.8266200,19.1048400"/>
    <edge id="e130" from="n27" to="n76" priority="5" numLanes="1" speed="8.33" shape="72.8266200,19.1048400 72.8267000,19.1044600 72.8267400,19.1040200 72.8268000,19.1034000"/>
    <edge id="e131" from="n27" to="n77" priority="8" numLanes="2" speed="11.11" shape="72.8266800,19.1049000 72.8267100,19.1049000 72.8267700,19.1048900 72.8270500,19.1048300 72.8273500,19.1047600 72.8276600,19.1047000 72.8283000,19.1045600 72.8284800,19.1045200"/>
    <edge id="e132" from="n77" to="n27" priority="8" numLanes="2" speed="11.11" shape="72.8284800,19.1045200 72.8283000,19.1045600 72.8276600,19.1047000 72.8273500,19.1047600 72.8270500,19.1048300 72.8267700,19.1048900 72.8267100,19.1049000 72.8266800,19.1049000"/>