<?xml version="1.0" encoding="UTF-8"?>
<nodes>
    <node id="n1" x="72.8289700" y="19.1075000" type="priority"/>
    <node id="n2" x="72.8289800" y="19.1089000" type="traffic_light"/>
    <node id="n3" x="72.8299700" y="19.1089000" type="traffic_light"/>
    <node id="n4" x="72.8299600" y="19.1071900" type="traffic_light"/>
    <node id="n5" x="72.8319300" y="19.1071700" type="priority"/>
    <node id="n6" x="72.8319200" y="19.1075000" type="priority"/>
    <node id="n7" x="72.8462000" y="19.1189800" type="priority"/>
    <node id="n8" x="72.8462400" y="19.1197000" type="priority"/>
    <node id="n9" x="72.8455400" y="19.1198700" type="priority"/>
    <node id="n10" x="72.8442100" y="19.1165200" type="priority"/>
    <node id="n11" x="72.8443100" y="19.1162900" type="priority"/>
    <node id="n12" x="72.8491800" y="19.1154700" type="priority"/>
    <node id="n13" x="72.8544800" y="19.1136500" type="priority"/>
    <node id="n14" x="72.8549400" y="19.1166800" type="traffic_light"/>
    <node id="n15" x="72.8557600" y="19.1161800" type="priority"/>
    <node id="n16" x="72.8568400" y="19.1186100" type="priority"/>
    <node id="n17" x="72.8585100" y="19.1184800" type="priority"/>
    <node id="n18" x="72.8590800" y="19.1181900" type="priority"/>
    <node id="n19" x="72.8645600" y="19.1222700" type="priority"/>
    <node id="n20" x="72.8644300" y="19.1224700" type="priority"/>
    <node id="n21" x="72.8641600" y="19.1225000" type="priority"/>
    <node id="n22" x="72.8646600" y="19.1248300" type="priority"/>
    <node id="n23" x="72.8648000" y="19.1251100" type="traffic_light"/>
    <node id="n24" x="72.8662500" y="19.1253600" type="priority"/>
    <node id="n25" x="72.8649800" y="19.1250600" type="priority"/>
    <node id="n26" x="72.8248000" y="19.1047300" type="priority"/>
    <node id="n27" x="72.8266100" y="19.1049000" type="priority"/>
    <node id="n28" x="72.8263600" y="19.1074700" type="priority"/>
    <node id="n29" x="72.8260000" y="19.1074500" type="priority"/>
    <node id="n30" x="72.8500900" y="19.1225400" type="priority"/>
    <node id="n31" x="72.8499900" y="19.1229100" type="priority"/>
    <node id="n32" x="72.8510200" y="19.1229400" type="priority"/>
    <node id="n33" x="72.8536900" y="19.1258700" type="priority"/>
    <node id="n34" x="72.8538900" y="19.1252200" type="priority"/>
    <node id="n35" x="72.8550300" y="19.1250300" type="priority"/>
    <node id="n36" x="72.8378800" y="19.1128000" type="priority"/>
    <node id="n37" x="72.8391700" y="19.1133200" type="priority"/>
    <node id="n38" x="72.8401000" y="19.1157800" type="priority"/>
    <node id="n39" x="72.8402600" y="19.1162800" type="traffic_light"/>
    <node id="n40" x="72.8455000" y="19.1159300" type="priority"/>
    <node id="n41" x="72.8489100" y="19.1153300" type="priority"/>
    <node id="n42" x="72.8442000" y="19.1162100" type="priority"/>
    <node id="n43" x="72.8440000" y="19.1162600" type="traffic_light"/>
    <node id="n44" x="72.8429700" y="19.1150200" type="priority"/>
    <node id="n45" x="72.8467800" y="19.1125100" type="priority"/>
    <node id="n46" x="72.8468500" y="19.1131300" type="priority"/>
    <node id="n47" x="72.8476100" y="19.1134200" type="priority"/>
    <node id="n48" x="72.8476600" y="19.1162900" type="priority"/>
    <node id="n49" x="72.8474600" y="19.1156700" type="priority"/>
    <node id="n50" x="72.8486900" y="19.1154700" type="priority"/>
    <node id="n51" x="72.8260900" y="19.1175800" type="priority"/>
    <node id="n52" x="72.8274400" y="19.1161000" type="priority"/>
    <node id="n53" x="72.8291100" y="19.1160800" type="priority"/>
    <node id="n54" x="72.8295400" y="19.1162100" type="priority"/>
    <node id="n55" x="72.8298100" y="19.1165200" type="traffic_light"/>
    <node id="n56" x="72.8298900" y="19.1216700" type="priority"/>
    <node id="n57" x="72.8271700" y="19.1219000" type="traffic_light"/>
    <node id="n58" x="72.8265400" y="19.1207500" type="priority"/>
    <node id="n59" x="72.8260900" y="19.1212600" type="priority"/>
    <node id="n60" x="72.8235300" y="19.1205300" type="priority"/>
    <node id="n61" x="72.8500700" y="19.1199500" type="priority"/>
    <node id="n62" x="72.8499500" y="19.1197900" type="priority"/>
    <node id="n63" x="72.8548300" y="19.1168100" type="priority"/>
    <node id="n64" x="72.8554900" y="19.1196000" type="priority"/>
    <node id="n65" x="72.8560800" y="19.1224800" type="priority"/>
    <node id="n66" x="72.8406100" y="19.1250700" type="priority"/>
    <node id="n67" x="72.8404800" y="19.1244100" type="priority"/>
    <node id="n68" x="72.8416800" y="19.1243000" type="priority"/>
    <node id="n69" x="72.8418600" y="19.1244500" type="priority"/>
    <node id="n70" x="72.8415500" y="19.1251500" type="priority"/>
    <node id="n71" x="72.8458700" y="19.1264000" type="priority"/>
    <node id="n72" x="72.8461100" y="19.1260900" type="priority"/>
    <node id="n73" x="72.8469100" y="19.1258100" type="priority"/>
    <node id="n74" x="72.8471100" y="19.1275600" type="priority"/>
    <node id="n75" x="72.8249800" y="19.1031200" type="priority"/>
    <node id="n76" x="72.8268100" y="19.1032800" type="priority"/>
    <node id="n77" x="72.8289800" y="19.1044100" type="priority"/>
    <node id="n78" x="72.8289900" y="19.1050000" type="priority"/>
    <node id="n79" x="72.8536900" y="19.1080500" type="priority"/>
    <node id="n80" x="72.8540400" y="19.0992100" type="priority"/>
    <node id="n81" x="72.8541100" y="19.0989900" type="priority"/>
    <node id="n82" x="72.8533600" y="19.0969600" type="priority"/>
    <node id="n83" x="72.8529400" y="19.0970900" type="priority"/>
    <node id="n84" x="72.8538000" y="19.0993700" type="priority"/>
    <node id="n85" x="72.8539700" y="19.0995200" type="priority"/>
    <node id="n86" x="72.8540800" y="19.1132700" type="priority"/>
    <node id="n87" x="72.8454700" y="19.1158000" type="priority"/>
    <node id="n88" x="72.8372800" y="19.1160000" type="traffic_light"/>
    <node id="n89" x="72.8373200" y="19.1158100" type="priority"/>
    <node id="n90" x="72.8373500" y="19.1146600" type="priority"/>
    <node id="n91" x="72.8365900" y="19.1142200" type="priority"/>
    <node id="n92" x="72.8364300" y="19.1141400" type="traffic_light"/>
    <node id="n93" x="72.8303500" y="19.1160400" type="traffic_light"/>
    <node id="n94" x="72.8299700" y="19.1155700" type="priority"/>
    <node id="n95" x="72.8299600" y="19.1100000" type="priority"/>
    <node id="n96" x="72.8320500" y="19.1274900" type="priority"/>
    <node id="n97" x="72.8321500" y="19.1278000" type="priority"/>
    <node id="n98" x="72.8310100" y="19.1280500" type="traffic_light"/>
    <node id="n99" x="72.8313100" y="19.1310800" type="priority"/>
    <node id="n100" x="72.8320200" y="19.1350500" type="priority"/>
    <node id="n101" x="72.8317200" y="19.1329500" type="priority"/>
    <node id="n102" x="72.8319300" y="19.1329300" type="priority"/>
    <node id="n103" x="72.8321600" y="19.1329100" type="priority"/>
    <node id="n104" x="72.8321200" y="19.1324900" type="priority"/>
    <node id="n105" x="72.8376400" y="19.1050300" type="priority"/>
    <node id="n106" x="72.8379900" y="19.1082200" type="priority"/>
    <node id="n107" x="72.8369700" y="19.1083300" type="traffic_light"/>
    <node id="n108" x="72.8369300" y="19.1071300" type="traffic_light"/>
    <node id="n109" x="72.8366800" y="19.1071500" type="priority"/>
    <node id="n110" x="72.8345800" y="19.1071000" type="priority"/>
    <node id="n111" x="72.8350100" y="19.1071800" type="priority"/>
    <node id="n112" x="72.8649200" y="19.1124900" type="priority"/>
    <node id="n113" x="72.8650000" y="19.1114600" type="priority"/>
    <node id="n114" x="72.8667800" y="19.1123600" type="priority"/>
    <node id="n115" x="72.8669300" y="19.1123100" type="priority"/>
    <node id="n116" x="72.8673100" y="19.1136700" type="priority"/>
    <node id="n117" x="72.8681600" y="19.1149900" type="priority"/>
    <node id="n118" x="72.8529500" y="19.1175300" type="traffic_light"/>
    <node id="n119" x="72.8530700" y="19.1177300" type="priority"/>
    <node id="n120" x="72.8509100" y="19.1190500" type="traffic_light"/>
    <node id="n121" x="72.8515800" y="19.1201300" type="priority"/>
    <node id="n122" x="72.8526700" y="19.1198200" type="priority"/>
    <node id="n123" x="72.8439600" y="19.1198100" type="priority"/>
    <node id="n124" x="72.8437600" y="19.1197000" type="priority"/>
    <node id="n125" x="72.8436300" y="19.1197500" type="priority"/>
    <node id="n126" x="72.8435000" y="19.1199800" type="priority"/>
    <node id="n127" x="72.8440000" y="19.1204300" type="priority"/>
    <node id="n128" x="72.8456100" y="19.1200400" type="priority"/>
    <node id="n129" x="72.8503400" y="19.1153000" type="priority"/>
    <node id="n130" x="72.8490900" y="19.1202500" type="priority"/>
    <node id="n131" x="72.8475700" y="19.1212400" type="priority"/>
    <node id="n132" x="72.8479100" y="19.1221900" type="priority"/>
    <node id="n133" x="72.8474500" y="19.1222800" type="priority"/>
    <node id="n134" x="72.8481100" y="19.1119300" type="priority"/>
    <node id="n135" x="72.8485400" y="19.1124000" type="priority"/>
    <node id="n136" x="72.8479200" y="19.1129600" type="priority"/>
    <node id="n137" x="72.8501500" y="19.1112900" type="priority"/>
    <node id="n138" x="72.8400400" y="19.1059300" type="priority"/>
    <node id="n139" x="72.8398100" y="19.1059800" type="traffic_light"/>
    <node id="n140" x="72.8403200" y="19.1080000" type="traffic_light"/>
    <node id="n141" x="72.8369500" y="19.1090100" type="priority"/>
    <node id="n142" x="72.8453000" y="19.1050000" type="priority"/>
    <node id="n143" x="72.8453900" y="19.1059800" type="priority"/>
    <node id="n144" x="72.8462300" y="19.1058700" type="priority"/>
    <node id="n145" x="72.8298600" y="19.1160400" type="traffic_light"/>
    <node id="n146" x="72.8298100" y="19.1181600" type="priority"/>
    <node id="n147" x="72.8298900" y="19.1166500" type="priority"/>
    <node id="n148" x="72.8365600" y="19.1166700" type="priority"/>
    <node id="n149" x="72.8361600" y="19.1198600" type="priority"/>
    <node id="n150" x="72.8358500" y="19.1199400" type="priority"/>
    <node id="n151" x="72.8350000" y="19.1198800" type="priority"/>
    <node id="n152" x="72.8380200" y="19.1173200" type="priority"/>
    <node id="n153" x="72.8396400" y="19.1172500" type="priority"/>
    <node id="n154" x="72.8415700" y="19.1164300" type="priority"/>
    <node id="n155" x="72.8415400" y="19.1165400" type="priority"/>
    <node id="n156" x="72.8416100" y="19.1179100" type="priority"/>
    <node id="n157" x="72.8418400" y="19.1186900" type="priority"/>
    <node id="n158" x="72.8419100" y="19.1188200" type="priority"/>
    <node id="n159" x="72.8433400" y="19.1187800" type="priority"/>
    <node id="n160" x="72.8531200" y="19.1250400" type="priority"/>
    <node id="n161" x="72.8530800" y="19.1256400" type="priority"/>
    <node id="n162" x="72.8552900" y="19.1264800" type="priority"/>
    <node id="n163" x="72.8561000" y="19.1250600" type="priority"/>
    <node id="n164" x="72.8563600" y="19.1252100" type="priority"/>
    <node id="n165" x="72.8572400" y="19.1260300" type="priority"/>
    <node id="n166" x="72.8577300" y="19.1307900" type="priority"/>
    <node id="n167" x="72.8570900" y="19.1309300" type="priority"/>
    <node id="n168" x="72.8565600" y="19.1308800" type="priority"/>
    <node id="n169" x="72.8560700" y="19.1317200" type="priority"/>
    <node id="n170" x="72.8559600" y="19.1318200" type="priority"/>
    <node id="n171" x="72.8553300" y="19.1318900" type="priority"/>
    <node id="n172" x="72.8556000" y="19.1265900" type="priority"/>
    <node id="n173" x="72.8558300" y="19.1267100" type="priority"/>
    <node id="n174" x="72.8562200" y="19.1271900" type="traffic_light"/>
    <node id="n175" x="72.8531100" y="19.1138000" type="traffic_light"/>
    <node id="n176" x="72.8528900" y="19.1132500" type="priority"/>
    <node id="n177" x="72.8529100" y="19.1103300" type="priority"/>
    <node id="n178" x="72.8530000" y="19.1098100" type="priority"/>
    <node id="n179" x="72.8529700" y="19.1094500" type="priority"/>
    <node id="n180" x="72.8539500" y="19.1092200" type="traffic_light"/>
    <node id="n181" x="72.8620300" y="19.1226900" type="priority"/>
    <node id="n182" x="72.8617400" y="19.1227600" type="priority"/>
    <node id="n183" x="72.8613800" y="19.1213100" type="priority"/>
    <node id="n184" x="72.8639300" y="19.1207000" type="priority"/>
    <node id="n185" x="72.8646700" y="19.1251500" type="priority"/>
    <node id="n186" x="72.8631400" y="19.1256100" type="priority"/>
    <node id="n187" x="72.8635000" y="19.1261800" type="priority"/>
    <node id="n188" x="72.8629400" y="19.1263800" type="priority"/>
    <node id="n189" x="72.8631800" y="19.1268700" type="priority"/>
    <node id="n190" x="72.8619500" y="19.1274000" type="traffic_light"/>
    <node id="n191" x="72.8439800" y="19.1025000" type="priority"/>
    <node id="n192" x="72.8439800" y="19.1027700" type="priority"/>
    <node id="n193" x="72.8435400" y="19.1028400" type="priority"/>
    <node id="n194" x="72.8440600" y="19.1060600" type="priority"/>
    <node id="n195" x="72.8431800" y="19.1060700" type="priority"/>
    <node id="n196" x="72.8420200" y="19.1060300" type="priority"/>
    <node id="n197" x="72.8462800" y="19.1057000" type="priority"/>
    <node id="n198" x="72.8465200" y="19.1041800" type="priority"/>
    <node id="n199" x="72.8467500" y="19.1042200" type="priority"/>
    <node id="n200" x="72.8482200" y="19.1045400" type="priority"/>
    <node id="n201" x="72.8491600" y="19.1044000" type="priority"/>
    <node id="n202" x="72.8492500" y="19.1045600" type="priority"/>
    <node id="n203" x="72.8497200" y="19.1045100" type="priority"/>
    <node id="n204" x="72.8498100" y="19.1049600" type="priority"/>
    <node id="n205" x="72.8318900" y="19.1049100" type="priority"/>
    <node id="n206" x="72.8353300" y="19.1045100" type="priority"/>
    <node id="n207" x="72.8353200" y="19.1050100" type="priority"/>
    <node id="n208" x="72.8408800" y="19.1300100" type="priority"/>
    <node id="n209" x="72.8412900" y="19.1292100" type="traffic_light"/>
    <node id="n210" x="72.8411800" y="19.1283600" type="priority"/>
    <node id="n211" x="72.8473800" y="19.1298300" type="priority"/>
    <node id="n212" x="72.8470100" y="19.1298700" type="priority"/>
    <node id="n213" x="72.8535200" y="19.1092300" type="traffic_light"/>
    <node id="n214" x="72.8521000" y="19.1097500" type="priority"/>
    <node id="n215" x="72.8520300" y="19.1076000" type="priority"/>
    <node id="n216" x="72.8530000" y="19.1075400" type="priority"/>
    <node id="n217" x="72.8530400" y="19.1150100" type="priority"/>
    <node id="n218" x="72.8529800" y="19.1153800" type="priority"/>
    <node id="n219" x="72.8537300" y="19.1153900" type="traffic_light"/>
    <node id="n220" x="72.8537100" y="19.1156900" type="priority"/>
    <node id="n221" x="72.8547900" y="19.1156300" type="priority"/>
    <node id="n222" x="72.8561300" y="19.1173900" type="priority"/>
    <node id="n223" x="72.8648700" y="19.1046300" type="priority"/>
    <node id="n224" x="72.8639600" y="19.1049200" type="priority"/>
    <node id="n225" x="72.8639500" y="19.1044000" type="priority"/>
    <node id="n226" x="72.8627500" y="19.1042500" type="priority"/>
    <node id="n227" x="72.8617100" y="19.1041500" type="priority"/>
    <node id="n228" x="72.8637300" y="19.1008000" type="priority"/>
    <node id="n229" x="72.8664200" y="19.1029600" type="priority"/>
    <node id="n230" x="72.8677200" y="19.1051500" type="priority"/>
    <node id="n231" x="72.8677600" y="19.1277100" type="priority"/>
    <node id="n232" x="72.8685800" y="19.1285200" type="priority"/>
    <node id="n233" x="72.8680000" y="19.1290300" type="priority"/>
    <node id="n234" x="72.8680300" y="19.1292300" type="priority"/>
    <node id="n235" x="72.8669500" y="19.1298000" type="priority"/>
    <node id="n236" x="72.8657500" y="19.1298200" type="priority"/>
    <node id="n237" x="72.8623900" y="19.1298300" type="priority"/>
    <node id="n238" x="72.8347600" y="19.1175100" type="priority"/>
    <node id="n239" x="72.8347400" y="19.1167000" type="priority"/>
    <node id="n240" x="72.8305500" y="19.1243000" type="priority"/>
    <node id="n241" x="72.8307600" y="19.1242400" type="priority"/>
    <node id="n242" x="72.8332500" y="19.1242500" type="priority"/>
    <node id="n243" x="72.8334800" y="19.1252300" type="priority"/>
    <node id="n244" x="72.8334300" y="19.1245600" type="priority"/>
    <node id="n245" x="72.8335300" y="19.1240600" type="priority"/>
    <node id="n246" x="72.8340700" y="19.1239900" type="priority"/>
    <node id="n247" x="72.8344400" y="19.1252800" type="priority"/>
    <node id="n248" x="72.8354700" y="19.1252400" type="priority"/>
    <node id="n249" x="72.8365300" y="19.1251100" type="priority"/>
    <node id="n250" x="72.8364900" y="19.1228300" type="priority"/>
    <node id="n251" x="72.8350000" y="19.1228200" type="priority"/>
    <node id="n252" x="72.8589700" y="19.1049000" type="priority"/>
    <node id="n253" x="72.8591000" y="19.1068800" type="priority"/>
    <node id="n254" x="72.8591900" y="19.1071200" type="priority"/>
    <node id="n255" x="72.8593800" y="19.1069700" type="priority"/>
    <node id="n256" x="72.8607500" y="19.1053400" type="priority"/>
    <node id="n257" x="72.8613700" y="19.1058000" type="priority"/>
    <node id="n258" x="72.8627900" y="19.1058400" type="priority"/>
    <node id="n259" x="72.8635700" y="19.1059300" type="priority"/>
    <node id="n260" x="72.8641200" y="19.1074700" type="priority"/>
    <node id="n261" x="72.8641700" y="19.1076500" type="priority"/>
    <node id="n262" x="72.8647900" y="19.1075400" type="priority"/>
    <node id="n263" x="72.8527400" y="19.1152000" type="priority"/>
    <node id="n264" x="72.8529800" y="19.1145100" type="priority"/>
    <node id="n265" x="72.8527900" y="19.1139800" type="priority"/>
    <node id="n266" x="72.8552900" y="19.1130900" type="priority"/>
    <node id="n267" x="72.8554000" y="19.1132600" type="priority"/>
    <node id="n268" x="72.8555500" y="19.1134600" type="priority"/>
    <node id="n269" x="72.8553700" y="19.1140700" type="priority"/>
    <node id="n270" x="72.8552400" y="19.1142200" type="priority"/>
    <node id="n271" x="72.8559200" y="19.1147000" type="priority"/>
    <node id="n272" x="72.8580200" y="19.1061000" type="priority"/>
    <node id="n273" x="72.8587900" y="19.1059400" type="priority"/>
    <node id="n274" x="72.8585800" y="19.1077900" type="traffic_light"/>
    <node id="n275" x="72.8300000" y="19.1160400" type="priority"/>
    <node id="n276" x="72.8564900" y="19.1255300" type="priority"/>
    <node id="n277" x="72.8577300" y="19.1301700" type="priority"/>
    <node id="n278" x="72.8583600" y="19.1300900" type="priority"/>
    <node id="n279" x="72.8471600" y="19.1050400" type="priority"/>
    <node id="n280" x="72.8471300" y="19.1052600" type="priority"/>
    <node id="n281" x="72.8462600" y="19.1051800" type="priority"/>
    <node id="n282" x="72.8483700" y="19.1079900" type="priority"/>
    <node id="n283" x="72.8481600" y="19.1080800" type="priority"/>
    <node id="n284" x="72.8480000" y="19.1082800" type="priority"/>
    <node id="n285" x="72.8484600" y="19.1097200" type="priority"/>
    <node id="n286" x="72.8470100" y="19.1102300" type="priority"/>
    <node id="n287" x="72.8290500" y="19.1202800" type="priority"/>
    <node id="n288" x="72.8298100" y="19.1201400" type="priority"/>
    <node id="n289" x="72.8334200" y="19.1229700" type="priority"/>
    <node id="n290" x="72.8320000" y="19.1229800" type="priority"/>
    <node id="n291" x="72.8352800" y="19.1071900" type="priority"/>
    <node id="n292" x="72.8298600" y="19.1071100" type="traffic_light"/>
    <node id="n293" x="72.8298700" y="19.1102400" type="priority"/>
    <node id="n294" x="72.8503500" y="19.1151100" type="priority"/>
    <node id="n295" x="72.8438400" y="19.1162800" type="traffic_light"/>
    <node id="n296" x="72.8620600" y="19.1000600" type="priority"/>
    <node id="n297" x="72.8626000" y="19.1000700" type="priority"/>
    <node id="n298" x="72.8626000" y="19.1009300" type="priority"/>
    <node id="n299" x="72.8623500" y="19.1009300" type="priority"/>
    <node id="n300" x="72.8623600" y="19.1018500" type="priority"/>
    <node id="n301" x="72.8630300" y="19.1020200" type="priority"/>
    <node id="n302" x="72.8706900" y="19.1031900" type="priority"/>
    <node id="n303" x="72.8707200" y="19.1029800" type="priority"/>
    <node id="n304" x="72.8679900" y="19.1028100" type="priority"/>
    <node id="n305" x="72.8511900" y="19.1237000" type="priority"/>
    <node id="n306" x="72.8510300" y="19.1236800" type="priority"/>
    <node id="n307" x="72.8497600" y="19.1238100" type="priority"/>
    <node id="n308" x="72.8501400" y="19.1261000" type="priority"/>
    <node id="n309" x="72.8502300" y="19.1264700" type="priority"/>
    <node id="n310" x="72.8504800" y="19.1265600" type="priority"/>
    <node id="n311" x="72.8505600" y="19.1271000" type="priority"/>
    <node id="n312" x="72.8503600" y="19.1272800" type="priority"/>
    <node id="n313" x="72.8499300" y="19.1274200" type="priority"/>
    <node id="n314" x="72.8257300" y="19.1300000" type="priority"/>
    <node id="n315" x="72.8257400" y="19.1293700" type="priority"/>
    <node id="n316" x="72.8310700" y="19.1281500" type="priority"/>
    <node id="n317" x="72.8314800" y="19.1300300" type="priority"/>
    <node id="n318" x="72.8319400" y="19.1299400" type="priority"/>
    <node id="n319" x="72.8589900" y="19.1020300" type="priority"/>
    <node id="n320" x="72.8546200" y="19.1002600" type="priority"/>
    <node id="n321" x="72.8544900" y="19.1002000" type="priority"/>
    <node id="n322" x="72.8539300" y="19.1036200" type="priority"/>
    <node id="n323" x="72.8537400" y="19.1035900" type="priority"/>
    <node id="n324" x="72.8532400" y="19.1036200" type="priority"/>
    <node id="n325" x="72.8533100" y="19.1050000" type="priority"/>
    <node id="n326" x="72.8530000" y="19.1050200" type="priority"/>
    <node id="n327" x="72.8619800" y="19.1148800" type="priority"/>
    <node id="n328" x="72.8616000" y="19.1148600" type="priority"/>
    <node id="n329" x="72.8613900" y="19.1145500" type="priority"/>
    <node id="n330" x="72.8620100" y="19.1142600" type="priority"/>
    <node id="n331" x="72.8619900" y="19.1141500" type="priority"/>
    <node id="n332" x="72.8570700" y="19.1154300" type="priority"/>
    <node id="n333" x="72.8537100" y="19.1173600" type="priority"/>
    <node id="n334" x="72.8500100" y="19.1300000" type="priority"/>
    <node id="n335" x="72.8500200" y="19.1295800" type="priority"/>
    <node id="n336" x="72.8511100" y="19.1295800" type="traffic_light"/>
    <node id="n337" x="72.8510900" y="19.1301000" type="priority"/>
    <node id="n338" x="72.8522000" y="19.1301300" type="priority"/>
    <node id="n339" x="72.8521900" y="19.1313700" type="priority"/>
    <node id="n340" x="72.8526500" y="19.1312500" type="priority"/>
    <node id="n341" x="72.8375400" y="19.1194800" type="priority"/>
    <node id="n342" x="72.8382600" y="19.1234500" type="priority"/>
    <node id="n343" x="72.8391700" y="19.1229500" type="priority"/>
    <node id="n344" x="72.8392100" y="19.1226500" type="priority"/>
    <node id="n345" x="72.8390800" y="19.1224400" type="priority"/>
    <node id="n346" x="72.8392300" y="19.1222300" type="priority"/>
    <node id="n347" x="72.8378200" y="19.1201000" type="priority"/>
    <node id="n348" x="72.8500300" y="19.1101400" type="priority"/>
    <node id="n349" x="72.8495200" y="19.1102500" type="priority"/>
    <node id="n350" x="72.8492900" y="19.1099200" type="priority"/>
    <node id="n351" x="72.8544200" y="19.1133700" type="priority"/>
    <node id="n352" x="72.8587300" y="19.1119400" type="traffic_light"/>
    <node id="n353" x="72.8587300" y="19.1117700" type="priority"/>
    <node id="n354" x="72.8579800" y="19.1120100" type="priority"/>
    <node id="n355" x="72.8560700" y="19.1126800" type="priority"/>
    <node id="n356" x="72.8420500" y="19.1137700" type="priority"/>
    <node id="n357" x="72.8450100" y="19.1186500" type="priority"/>
    <node id="n358" x="72.8412000" y="19.1187800" type="priority"/>
    <node id="n359" x="72.8411300" y="19.1200800" type="priority"/>
    <node id="n360" x="72.8318300" y="19.1149600" type="priority"/>
    <node id="n361" x="72.8316300" y="19.1161300" type="priority"/>
    <node id="n362" x="72.8379500" y="19.1144700" type="traffic_light"/>
    <node id="n363" x="72.8381800" y="19.1146600" type="priority"/>
    <node id="n364" x="72.8386600" y="19.1146200" type="priority"/>
    <node id="n365" x="72.8386100" y="19.1148400" type="traffic_light"/>
    <node id="n366" x="72.8380000" y="19.1150100" type="traffic_light"/>
    <node id="n367" x="72.8521400" y="19.1098600" type="priority"/>
    <node id="n368" x="72.8589100" y="19.1059400" type="priority"/>
    <node id="n369" x="72.8556800" y="19.1063800" type="priority"/>
    <node id="n370" x="72.8557400" y="19.1074400" type="traffic_light"/>
    <node id="n371" x="72.8559700" y="19.1073900" type="priority"/>
    <node id="n372" x="72.8410000" y="19.1024800" type="priority"/>
    <node id="n373" x="72.8438800" y="19.1050200" type="priority"/>
    <node id="n374" x="72.8499700" y="19.1294000" type="priority"/>
    <node id="n375" x="72.8499200" y="19.1282600" type="priority"/>
    <node id="n376" x="72.8494100" y="19.1280700" type="priority"/>
    <node id="n377" x="72.8481900" y="19.1277400" type="priority"/>
    <node id="n378" x="72.8476600" y="19.1241400" type="priority"/>
    <node id="n379" x="72.8481600" y="19.1242300" type="priority"/>
    <node id="n380" x="72.8480800" y="19.1240800" type="priority"/>
    <node id="n381" x="72.8510100" y="19.1191300" type="priority"/>
    <node id="n382" x="72.8506000" y="19.1152300" type="priority"/>
    <node id="n383" x="72.8472700" y="19.1043600" type="priority"/>
    <node id="n384" x="72.8489000" y="19.1058000" type="priority"/>
    <node id="n385" x="72.8503000" y="19.1059400" type="priority"/>
    <node id="n386" x="72.8503000" y="19.1061200" type="priority"/>
    <node id="n387" x="72.8500800" y="19.1061400" type="priority"/>
    <node id="n388" x="72.8500400" y="19.1075000" type="priority"/>
    <node id="n389" x="72.8299400" y="19.1201500" type="priority"/>
    <node id="n390" x="72.8330600" y="19.1296900" type="priority"/>
    <node id="n391" x="72.8332900" y="19.1304300" type="priority"/>
    <node id="n392" x="72.8354800" y="19.1304200" type="priority"/>
    <node id="n393" x="72.8356500" y="19.1302800" type="priority"/>
    <node id="n394" x="72.8359600" y="19.1303400" type="priority"/>
    <node id="n395" x="72.8361600" y="19.1297300" type="priority"/>
    <node id="n396" x="72.8376200" y="19.1285400" type="priority"/>
    <node id="n397" x="72.8376900" y="19.1298700" type="traffic_light"/>
    <node id="n398" x="72.8380100" y="19.1299200" type="priority"/>
    <node id="n399" x="72.8259900" y="19.1002700" type="priority"/>
    <node id="n400" x="72.8263400" y="19.1003200" type="priority"/>
    <node id="n401" x="72.8265200" y="19.0998900" type="priority"/>
    <node id="n402" x="72.8274300" y="19.1000200" type="priority"/>
    <node id="n403" x="72.8369000" y="19.1024700" type="priority"/>
    <node id="n404" x="72.8338200" y="19.1032000" type="priority"/>
    <node id="n405" x="72.8338600" y="19.1027200" type="priority"/>
    <node id="n406" x="72.8340100" y="19.1020600" type="priority"/>
    <node id="n407" x="72.8319700" y="19.1023500" type="priority"/>
    <node id="n408" x="72.8589100" y="19.1074300" type="priority"/>
    <node id="n409" x="72.8529700" y="19.1099800" type="priority"/>
    <node id="n410" x="72.8533900" y="19.1154800" type="priority"/>
    <node id="n411" x="72.8537100" y="19.1158600" type="priority"/>
    <node id="n412" x="72.8482300" y="19.1186400" type="priority"/>
    <node id="n413" x="72.8500400" y="19.1175900" type="priority"/>
    <node id="n414" x="72.8473900" y="19.1152900" type="traffic_light"/>
    <node id="n415" x="72.8490000" y="19.1121400" type="priority"/>
    <node id="n416" x="72.8500300" y="19.1078600" type="priority"/>
    <node id="n417" x="72.8498300" y="19.1078600" type="priority"/>
    <node id="n418" x="72.8498700" y="19.1081300" type="priority"/>
    <node id="n419" x="72.8486900" y="19.1088100" type="priority"/>
    <node id="n420" x="72.8256200" y="19.1012200" type="priority"/>
    <node id="n421" x="72.8271200" y="19.1014800" type="priority"/>
    <node id="n422" x="72.8237700" y="19.1238700" type="traffic_light"/>
    <node id="n423" x="72.8256600" y="19.1343300" type="priority"/>
    <node id="n424" x="72.8248500" y="19.1347400" type="priority"/>
    <node id="n425" x="72.8224700" y="19.1349400" type="priority"/>
    <node id="n426" x="72.8228800" y="19.1348100" type="priority"/>
    <node id="n427" x="72.8230000" y="19.1300000" type="priority"/>
    <node id="n428" x="72.8256300" y="19.1294000" type="priority"/>
    <node id="n429" x="72.8256500" y="19.1327500" type="traffic_light"/>
    <node id="n430" x="72.8260300" y="19.1327200" type="priority"/>
    <node id="n431" x="72.8260300" y="19.1325000" type="priority"/>
    <node id="n432" x="72.8410100" y="19.1202900" type="priority"/>
    <node id="n433" x="72.8418300" y="19.1215500" type="priority"/>
    <node id="n434" x="72.8415900" y="19.1219600" type="priority"/>
    <node id="n435" x="72.8411500" y="19.1226000" type="traffic_light"/>
    <node id="n436" x="72.8458400" y="19.1058800" type="priority"/>
    <node id="n437" x="72.8702100" y="19.0999400" type="priority"/>
    <node id="n438" x="72.8708300" y="19.1000000" type="priority"/>
    <node id="n439" x="72.8637200" y="19.1006700" type="priority"/>