<?xml version="1.0" encoding="UTF-8"?>
<trips>
    <trip id="car_0" depart="0.3" from="e3977" to="e1361"/>
    <trip id="car_1" depart="9.6" from="e759" to="e2813"/>
    <trip id="car_2" depart="18.0" from="e3402" to="e3762"/>
    <trip id="car_3" depart="28.5" from="e4193" to="e1666"/>
    <trip id="car_4" depart="37.1" from="e4119" to="e2897"/>
    <trip id="car_5" depart="45.4" from="e3654" to="e4877"/>
    <trip id="car_6" depart="55.2" from="e1590" to="e4362"/>
    <trip id="car_7" depart="64.1" from="e697" to="e1701"/>
    <trip id="car_8" depart="72.3" from="e2314" to="e1718"/>
    <trip id="car_9" depart="80.3" from="e4096" to="e3733"/>
    <trip id="car_10" depart="90.9" from="e3868" to="e2725"/>
    <trip id="car_11" depart="98.0" from="e1361" to="e3083"/>
    <trip id="car_12" depart="106.7" from="e3604" to="e2468"/>
    <trip id="car_13" depart="116.3" from="e3039" to="e4919"/>
    <trip id="car_14" depart="125.8" from="e747" to="e3657"/>
    <trip id="car_15" depart="133.8" from="e3154" to="e4571"/>
    <trip id="car_16" depart="143.4" from="e4384" to="e503"/>
    <trip id="car_17" depart="153.0" from="e1407" to="e2110"/>
    <trip id="car_18" depart="160.2" from="e1978" to="e798"/>
    <trip id="car_19" depart="170.6" from="e591" to="e1903"/>
    <trip id="car_20" depart="179.7" from="e1743" to="e1846"/>
    <trip id="car_21" depart="187.8" from="e3644" to="e1229"/>
    <trip id="car_22" depart="195.8" from="e4747" to="e4769"/>
    <trip id="car_23" depart="205.4" from="e4874" to="e3640"/>
    <trip id="car_24" depart="214.4" from="e4128" to="e1797"/>
    <trip id="car_25" depart="222.8" from="e136" to="e3646"/>
    <trip id="car_26" depart="231.6" from="e27" to="e4628"/>
    <trip id="car_27" depart="240.0" from="e69" to="e925"/>
    <trip id="car_28" depart="249.1" from="e3245" to="e4490"/>
    <trip id="car_29" depart="259.5" from="e4330" to="e4933"/>
    <trip id="car_30" depart="267.7" from="e4889" to="e2864"/>
    <trip id="car_31" depart="277.3" from="e3401" to="e2902"/>
    <trip id="car_32" depart="285.4" from="e4100" to="e2543"/>
    <trip id="car_33" depart="293.8" from="e4433" to="e4537"/>
    <trip id="car_34" depart="303.8" from="e2621" to="e3763"/>
    <trip id="car_35" depart="313.0" from="e491" to="e4465"/>
    <trip id="car_36" depart="321.7" from="e1127" to="e4243"/>
    <trip id="car_37" depart="329.1" from="e3410" to="e4356"/>
    <trip id="car_38" depart="338.9" from="e2077" to="e4078"/>
    <trip id="car_39" depart="347.2" from="e4922" to="e3819"/>
    <trip id="car_40" depart="357.2" from="e1072" to="e4906"/>
    <trip id="car_41" depart="365.4" from="e1528" to="e2169"/>
    <trip id="car_42" depart="374.5" from="e953" to="e4450"/>
    <trip id="car_43" depart="383.7" from="e4830" to="e4385"/>
    <trip id="car_44" depart="392.8" from="e4286" to="e3157"/>
    <trip id="car_45" depart="401.3" from="e1340" to="e2414"/>
    <trip id="car_46" depart="410.8" from="e2249" to="e1153"/>
    <trip id="car_47" depart="417.9" from="e2525" to="e3922"/>
    <trip id="car_48" depart="428.3" from="e1913" to="e1095"/>
    <trip id="car_49" depart="436.8" from="e4733" to="e4079"/>
    <trip id="car_50" depart="445.3" from="e2661" to="e4545"/>
    <trip id="car_51" depart="453.8" from="e1441" to="e219"/>
    <trip id="car_52" depart="464.0" from="e4506" to="e3705"/>
    <trip id="car_53" depart="471.5" from="e1306" to="e4428"/>
    <trip id="car_54" depart="481.6" from="e3789" to="e970"/>
    <trip id="car_55" depart="490.8" from="e2367" to="e4807"/>
    <trip id="car_56" depart="498.0" from="e3952" to="e2340"/>
    <trip id="car_57" depart="507.8" from="e2115" to="e70"/>
    <trip id="car_58" depart="515.9" from="e815" to="e2298"/>
    <trip id="car_59" depart="525.9" from="e2755" to="e1978"/>
    <trip id="car_60" depart="534.2" from="e1780" to="e176"/>
    <trip id="car_61" depart="544.1" from="e2970" to="e3081"/>
    <trip id="car_62" depart="552.8" from="e1600" to="e2100"/>
    <trip id="car_63" depart="560.7" from="e3484" to="e88"/>
    <trip id="car_64" depart="569.4" from="e1067" to="e3473"/>
    <trip id="car_65" depart="579.2" from="e4595" to="e2569"/>
    <trip id="car_66" depart="586.7" from="e1576" to="e3985"/>
    <trip id="car_67" depart="595.8" from="e4065" to="e3073"/>
    <trip id="car_68" depart="605.9" from="e3587" to="e2141"/>
    <trip id="car_69" depart="614.0" from="e4924" to="e944"/>
    <trip id="car_70" depart="623.5" from="e2330" to="e4379"/>
    <trip id="car_71" depart="632.6" from="e1884" to="e3909"/>
    <trip id="car_72" depart="641.6" from="e3937" to="e965"/>
    <trip id="car_73" depart="649.8" from="e4716" to="e3250"/>
    <trip id="car_74" depart="658.3" from="e2022" to="e4020"/>
    <trip id="car_75" depart="667.9" from="e4574" to="e966"/>
    <trip id="car_76" depart="676.4" from="e1795" to="e4717"/>
    <trip id="car_77" depart="686.3" from="e4733" to="e2261"/>
    <trip id="car_78" depart="693.6" from="e4515" to="e3338"/>
    <trip id="car_79" depart="702.3" from="e1320" to="e530"/>
    <trip id="car_80" depart="711.3" from="e1145" to="e4361"/>
    <trip id="car_81" depart="720.5" from="e4551" to="e3170"/>
    <trip id="car_82" depart="730.8" from="e53" to="e4457"/>
    <trip id="car_83" depart="739.3" from="e1080" to="e4164"/>
    <trip id="car_84" depart="748.5" from="e4326" to="e3133"/>
    <trip id="car_85" depart="757.1" from="e1506" to="e3671"/>
    <trip id="car_86" depart="766.3" from="e1878" to="e2597"/>
    <trip id="car_87" depart="773.7" from="e2388" to="e544"/>
    <trip id="car_88" depart="782.7" from="e3839" to="e3584"/>
    <trip id="car_89" depart="791.5" from="e4248" to="e1581"/>
    <trip id="car_90" depart="801.5" from="e2906" to="e2394"/>
    <trip id="car_91" depart="810.9" from="e885" to="e1761"/>
    <trip id="car_92" depart="819.1" from="e3199" to="e4584"/>
    <trip id="car_93" depart="827.7" from="e2512" to="e4655"/>
    <trip id="car_94" depart="835.9" from="e4908" to="e4765"/>
    <trip id="car_95" depart="845.9" from="e4634" to="e3439"/>
    <trip id="car_96" depart="853.8" from="e4381" to="e4833"/>
    <trip id="car_97" depart="863.0" from="e1026" to="e4746"/>
    <trip id="car_98" depart="871.6" from="e4897" to="e3831"/>
    <trip id="car_99" depart="880.9" from="e4350" to="e3084"/>
    <trip id="car_100" depart="889.8" from="e216" to="e4056"/>
    <trip id="car_101" depart="897.9" from="e4730" to="e3011"/>
    <trip id="car_102" depart="906.7" from="e4137" to="e4591"/>
    <trip id="car_103" depart="916.9" from="e2517" to="e3270"/>
    <trip id="car_104" depart="925.4" from="e3013" to="e2242"/>
    <trip id="car_105" depart="933.5" from="e3910" to="e4020"/>
    <trip id="car_106" depart="942.7" from="e3660" to="e304"/>
    <trip id="car_107" depart="952.4" from="e4449" to="e1119"/>
    <trip id="car_108" depart="961.4" from="e1390" to="e943"/>
    <trip id="car_109" depart="969.7" from="e2836" to="e3084"/>
    <trip id="car_110" depart="979.3" from="e3745" to="e4779"/>
    <trip id="car_111" depart="988.3" from="e1246" to="e841"/>
    <trip id="car_112" depart="997.3" from="e16" to="e4408"/>
    <trip id="car_113" depart="1005.6" from="e2101" to="e316"/>
    <trip id="car_114" depart="1014.1" from="e3472" to="e43"/>
    <trip id="car_115" depart="1022.6" from="e825" to="e3808"/>
    <trip id="car_116" depart="1031.2" from="e2940" to="e820"/>
    <trip id="car_117" depart="1040.4" from="e3706" to="e2344"/>
    <trip id="car_118" depart="1049.3" from="e4261" to="e4516"/>
    <trip id="car_119" depart="1058.5" from="e524" to="e4533"/>
    <trip id="car_120" depart="1068.6" from="e4814" to="e3028"/>
    <trip id="car_121" depart="1077.4" from="e1164" to="e2900"/>
    <trip id="car_122" depart="1084.6" from="e1541" to="e1717"/>
    <trip id="car_123" depart="1093.5" from="e4106" to="e1265"/>
    <trip id="car_124" depart="1103.7" from="e821" to="e2556"/>
    <trip id="car_125" depart="1111.2" from="e1238" to="e3668"/>
    <trip id="car_126" depart="1120.7" from="e2514" to="e506"/>
    <trip id="car_127" depart="1130.5" from="e672" to="e3377"/>
    <trip id="car_128" depart="1138.7" from="e4165" to="e3535"/>
    <trip id="car_129" depart="1148.2" from="e3771" to="e4181"/>
    <trip id="car_130" depart="1157.2" from="e70" to="e3013"/>
    <trip id="car_131" depart="1164.9" from="e652" to="e1344"/>
    <trip id="car_132" depart="1173.9" from="e586" to="e4924"/>
    <trip id="car_133" depart="1182.8" from="e2508" to="e3514"/>
    <trip id="car_134" depart="1193.0" from="e4530" to="e4537"/>
    <trip id="car_135" depart="1200.4" from="e3752" to="e1775"/>
    <trip id="car_136" depart="1210.4" from="e4509" to="e79"/>
    <trip id="car_137" depart="1219.3" from="e3943" to="e2328"/>
    <trip id="car_138" depart="1227.0" from="e249" to="e311"/>
    <trip id="car_139" depart="1236.9" from="e1654" to="e3598"/>
    <trip id="car_140" depart="1245.7" from="e1931" to="e4896"/>
    <trip id="car_141" depart="1254.9" from="e3184" to="e4307"/>
    <trip id="car_142" depart="1262.7" from="e2184" to="e1203"/>
    <trip id="car_143" depart="1271.8" from="e1765" to="e2990"/>
    <trip id="car_144" depart="1281.1" from="e3360" to="e2778"/>
    <trip id="car_145" depart="1290.0" from="e719" to="e3785"/>
    <trip id="car_146" depart="1298.8" from="e4099" to="e1599"/>
    <trip id="car_147" depart="1308.3" from="e2744" to="e4171"/>
    <trip id="car_148" depart="1316.7" from="e2545" to="e4198"/>
    <trip id="car_149" depart="1325.3" from="e2651" to="e4801"/>
    <trip id="car_150" depart="1335.1" from="e2122" to="e3026"/>
    <trip id="car_151" depart="1344.0" from="e251" to="e1507"/>
    <trip id="car_152" depart="1352.8" from="e1072" to="e4877"/>
    <trip id="car_153" depart="1360.0" from="e2876" to="e2555"/>
    <trip id="car_154" depart="1370.7" from="e4481" to="e2344"/>
    <trip id="car_155" depart="1379.2" from="e21" to="e2479"/>
    <trip id="car_156" depart="1387.5" from="e2968" to="e3911"/>
    <trip id="car_157" depart="1396.9" from="e4011" to="e2418"/>
    <trip id="car_158" depart="1404.7" from="e277" to="e2469"/>
    <trip id="car_159" depart="1413.5" from="e4821" to="e208"/>
    <trip id="car_160" depart="1423.7" from="e4862" to="e2508"/>
    <trip id="car_161" depart="1432.8" from="e4012" to="e4315"/>
    <trip id="car_162" depart="1441.2" from="e4214" to="e1360"/>
    <trip id="car_163" depart="1450.5" from="e4803" to="e1095"/>
    <trip id="car_164" depart="1459.1" from="e2126" to="e4648"/>
    <trip id="car_165" depart="1466.9" from="e3867" to="e4943"/>
    <trip id="car_166" depart="1475.7" from="e2125" to="e3197"/>
    <trip id="car_167" depart="1484.7" from="e4131" to="e280"/>
    <trip id="car_168" depart="1494.2" from="e3962" to="e2035"/>
    <trip id="car_169" depart="1502.3" from="e539" to="e2118"/>
    <trip id="car_170" depart="1511.9" from="e3956" to="e1711"/>
    <trip id="car_171" depart="1520.9" from="e3835" to="e4183"/>
    <trip id="car_172" depart="1530.0" from="e3239" to="e953"/>
    <trip id="car_173" depart="1538.7" from="e2142" to="e964"/>
    <trip id="car_174" depart="1546.7" from="e3131" to="e2531"/>
    <trip id="car_175" depart="1557.0" from="e596" to="e4162"/>
    <trip id="car_176" depart="1565.6" from="e3160" to="e3560"/>
    <trip id="car_177" depart="1575.0" from="e216" to="e35"/>
    <trip id="car_178" depart="1583.2" from="e4538" to="e1803"/>
    <trip id="car_179" depart="1592.6" from="e816" to="e1425"/>
    <trip id="car_180" depart="1601.0" from="e4664" to="e4824"/>
    <trip id="car_181" depart="1610.4" from="e1851" to="e2646"/>
    <trip id="car_182" depart="1617.8" from="e2536" to="e4640"/>
    <trip id="car_183" depart="1628.1" from="e1143" to="e4911"/>
    <trip id="car_184" depart="1637.0" from="e2251" to="e2115"/>
    <trip id="car_185" depart="1646.3" from="e2122" to="e3936"/>
    <trip id="car_186" depart="1654.0" from="e2188" to="e2495"/>
    <trip id="car_187" depart="1663.7" from="e1305" to="e4697"/>
    <trip id="car_188" depart="1672.9" from="e3595" to="e3207"/>
    <trip id="car_189" depart="1680.8" from="e1808" to="e2981"/>
    <trip id="car_190" depart="1689.3" from="e1117" to="e4473"/>
    <trip id="car_191" depart="1699.5" from="e4585" to="e4798"/>
    <trip id="car_192" depart="1707.1" from="e4109" to="e4566"/>
    <trip id="car_193" depart="1715.6" from="e4868" to="e1657"/>
    <trip id="car_194" depart="1724.7" from="e2685" to="e2435"/>
    <trip id="car_195" depart="1733.6" from="e251" to="e3112"/>
    <trip id="car_196" depart="1744.0" from="e1343" to="e3815"/>
    <trip id="car_197" depart="1753.0" from="e4369" to="e3865"/>
    <trip id="car_198" depart="1761.7" from="e586" to="e3507"/>
    <trip id="car_199" depart="1770.5" from="e122" to="e4383"/>
    <trip id="car_200" depart="1778.0" from="e3639" to="e4300"/>
    <trip id="car_201" depart="1787.6" from="e1075" to="e1752"/>
    <trip id="car_202" depart="1796.9" from="e4060" to="e596"/>
    <trip id="car_203" depart="1804.7" from="e3440" to="e629"/>
    <trip id="car_204" depart="1814.7" from="e4378" to="e3526"/>
    <trip id="car_205" depart="1822.6" from="e3666" to="e3917"/>
    <trip id="car_206" depart="1832.1" from="e4674" to="e570"/>
    <trip id="car_207" depart="1841.7" from="e349" to="e2763"/>
    <trip id="car_208" depart="1849.5" from="e592" to="e4257"/>
    <trip id="car_209" depart="1857.9" from="e3759" to="e3157"/>
    <trip id="car_210" depart="1867.8" from="e4767" to="e2874"/>
    <trip id="car_211" depart="1875.6" from="e4841" to="e3853"/>
    <trip id="car_212" depart="1885.8" from="e4341" to="e4512"/>
    <trip id="car_213" depart="1894.7" from="e1199" to="e1517"/>
    <trip id="car_214" depart="1902.3" from="e303" to="e425"/>
    <trip id="car_215" depart="1911.6" from="e1085" to="e4036"/>
    <trip id="car_216" depart="1920.9" from="e836" to="e1121"/>
    <trip id="car_217" depart="1930.1" from="e3011" to="e507"/>
    <trip id="car_218" depart="1939.3" from="e4181" to="e3923"/>
    <trip id="car_219" depart="1947.7" from="e4730" to="e3712"/>
    <trip id="car_220" depart="1955.6" from="e3524" to="e2711"/>
    <trip id="car_221" depart="1964.9" from="e4540" to="e3954"/>
    <trip id="car_222" depart="1973.4" from="e4513" to="e3737"/>
    <trip id="car_223" depart="1982.6" from="e4663" to="e4555"/>
    <trip id="car_224" depart="1993.0" from="e4869" to="e382"/>
    <trip id="car_225" depart="2001.1" from="e1228" to="e9"/>
    <trip id="car_226" depart="2009.6" from="e3667" to="e3500"/>
    <trip id="car_227" depart="2019.5" from="e2204" to="e1067"/>
    <trip id="car_228" depart="2027.2" from="e4840" to="e3554"/>
    <trip id="car_229" depart="2037.0" from="e3313" to="e2582"/>
    <trip id="car_230" depart="2046.4" from="e2729" to="e1810"/>
    <trip id="car_231" depart="2054.3" from="e4296" to="e4514"/>
    <trip id="car_232" depart="2063.4" from="e2918" to="e1781"/>
    <trip id="car_233" depart="2072.4" from="e311" to="e4675"/>
    <trip id="car_234" depart="2080.3" from="e4529" to="e4387"/>
    <trip id="car_235" depart="2089.8" from="e4634" to="e4055"/>
    <trip id="car_236" depart="2099.4" from="e3131" to="e3642"/>
    <trip id="car_237" depart="2106.9" from="e3154" to="e1441"/>
    <trip id="car_238" depart="2115.7" from="e2979" to="e1693"/>
    <trip id="car_239" depart="2125.8" from="e239" to="e3658"/>
    <trip id="car_240" depart="2134.9" from="e3566" to="e1527"/>
    <trip id="car_241" depart="2143.3" from="e4586" to="e1620"/>
    <trip id="car_242" depart="2152.6" from="e4402" to="e387"/>
    <trip id="car_243" depart="2161.1" from="e4224" to="e4553"/>
    <trip id="car_244" depart="2169.7" from="e3042" to="e4648"/>
    <trip id="car_245" depart="2178.9" from="e1472" to="e2496"/>
    <trip id="car_246" depart="2188.4" from="e2208" to="e1463"/>
    <trip id="car_247" depart="2197.2" from="e56" to="e2495"/>
    <trip id="car_248" depart="2205.3" from="e1251" to="e3587"/>
    <trip id="car_249" depart="2213.7" from="e3271" to="e3645"/>
    <trip id="car_250" depart="2223.6" from="e2901" to="e60"/>
    <trip id="car_251" depart="2231.4" from="e654" to="e1850"/>
    <trip id="car_252" depart="2240.1" from="e2227" to="e4206"/>
    <trip id="car_253" depart="2249.8" from="e3851" to="e4184"/>
    <trip id="car_254" depart="2259.1" from="e3234" to="e256"/>
    <trip id="car_255" depart="2268.0" from="e4950" to="e3545"/>
    <trip id="car_256" depart="2276.9" from="e815" to="e1907"/>
    <trip id="car_257" depart="2284.7" from="e1592" to="e4898"/>
    <trip id="car_258" depart="2294.2" from="e2865" to="e2257"/>
    <trip id="car_259" depart="2302.8" from="e2461" to="e2743"/>
    <trip id="car_260" depart="2312.7" from="e2453" to="e4960"/>
    <trip id="car_261" depart="2321.8" from="e2648" to="e2723"/>
    <trip id="car_262" depart="2330.2" from="e4383" to="e4001"/>
    <trip id="car_263" depart="2338.3" from="e4576" to="e3418"/>
    <trip id="car_264" depart="2346.9" from="e1306" to="e1437"/>
    <trip id="car_265" depart="2356.7" from="e698" to="e2539"/>
    <trip id="car_266" depart="2366.1" from="e545" to="e3149"/>
    <trip id="car_267" depart="2375.2" from="e311" to="e3607"/>
    <trip id="car_268" depart="2383.3" from="e1202" to="e2459"/>
    <trip id="car_269" depart="2392.7" from="e4449" to="e2289"/>
    <trip id="car_270" depart="2401.9" from="e4832" to="e4002"/>
    <trip id="car_271" depart="2409.7" from="e3944" to="e4013"/>
    <trip id="car_272" depart="2418.3" from="e1347" to="e2425"/>
    <trip id="car_273" depart="2427.2" from="e4592" to="e3019"/>
    <trip id="car_274" depart="2437.0" from="e1558" to="e364"/>
    <trip id="car_275" depart="2446.4" from="e3393" to="e844"/>
    <trip id="car_276" depart="2454.3" from="e496" to="e2486"/>
    <trip id="car_277" depart="2464.1" from="e4042" to="e1561"/>
    <trip id="car_278" depart="2472.3" from="e2289" to="e3907"/>
    <trip id="car_279" depart="2481.6" from="e3374" to="e4272"/>
    <trip id="car_280" depart="2489.1" from="e2286" to="e873"/>
    <trip id="car_281" depart="2498.3" from="e3865" to="e809"/>
    <trip id="car_282" depart="2507.1" from="e3933" to="e1542"/>
    <trip id="car_283" depart="2516.7" from="e4551" to="e1923"/>
    <trip id="car_284" depart="2525.4" from="e3157" to="e248"/>
    <trip id="car_285" depart="2533.5" from="e854" to="e4371"/>
    <trip id="car_286" depart="2543.2" from="e2671" to="e1"/>
    <trip id="car_287" depart="2551.3" from="e3559" to="e2969"/>
    <trip id="car_288" depart="2560.1" from="e4286" to="e1424"/>
    <trip id="car_289" depart="2570.2" from="e495" to="e1178"/>
    <trip id="car_290" depart="2578.1" from="e1755" to="e1661"/>
    <trip id="car_291" depart="2588.2" from="e732" to="e1096"/>
    <trip id="car_292" depart="2597.5" from="e1832" to="e2125"/>
    <trip id="car_293" depart="2605.0" from="e1905" to="e4581"/>
    <trip id="car_294" depart="2613.7" from="e4587" to="e793"/>
    <trip id="car_295" depart="2622.7" from="e4764" to="e1611"/>
    <trip id="car_296" depart="2631.4" from="e3124" to="e4540"/>
    <trip id="car_297" depart="2641.2" from="e69" to="e1181"/>
    <trip id="car_298" depart="2649.2" from="e3385" to="e2811"/>
    <trip id="car_299" depart="2657.9" from="e1958" to="e3155"/>
    <trip id="car_300" depart="2667.8" from="e66" to="e3490"/>
    <trip id="car_301" depart="2676.1" from="e445" to="e4781"/>
    <trip id="car_302" depart="2686.1" from="e713" to="e2230"/>
    <trip id="car_303" depart="2694.6" from="e4384" to="e4834"/>
    <trip id="car_304" depart="2702.9" from="e2622" to="e4055"/>
    <trip id="car_305" depart="2712.5" from="e3709" to="e2332"/>
    <trip id="car_306" depart="2721.0" from="e1119" to="e2008"/>
    <trip id="car_307" depart="2730.5" from="e1368" to="e65"/>
    <trip id="car_308" depart="2738.7" from="e4208" to="e4198"/>
    <trip id="car_309" depart="2747.1" from="e4460" to="e2009"/>
    <trip id="car_310" depart="2757.2" from="e2459" to="e4856"/>
    <trip id="car_311" depart="2764.6" from="e4159" to="e3394"/>
    <trip id="car_312" depart="2773.6" from="e3604" to="e3188"/>
    <trip id="car_313" depart="2784.2" from="e1495" to="e109"/>
    <trip id="car_314" depart="2791.3" from="e1202" to="e1209"/>
    <trip id="car_315" depart="2800.2" from="e2304" to="e2524"/>
    <trip id="car_316" depart="2810.7" from="e1057" to="e3277"/>
    <trip id="car_317" depart="2818.8" from="e3861" to="e1527"/>
    <trip id="car_318" depart="2827.8" from="e1687" to="e3015"/>
    <trip id="car_319" depart="2836.1" from="e2862" to="e3866"/>
    <trip id="car_320" depart="2845.3" from="e170" to="e2632"/>
    <trip id="car_321" depart="2854.0" from="e1269" to="e1757"/>
    <trip id="car_322" depart="2862.8" from="e1732" to="e2559"/>
    <trip id="car_323" depart="2871.2" from="e2249" to="e3312"/>
    <trip id="car_324" depart="2880.5" from="e2726" to="e4553"/>
    <trip id="car_325" depart="2890.6" from="e2880" to="e2909"/>
    <trip id="car_326" depart="2898.3" from="e4573" to="e187"/>
    <trip id="car_327" depart="2908.0" from="e2393" to="e4949"/>
    <trip id="car_328" depart="2917.3" from="e2129" to="e343"/>
    <trip id="car_329" depart="2926.0" from="e813" to="e4644"/>
    <trip id="car_330" depart="2933.8" from="e2835" to="e1344"/>
    <trip id="car_331" depart="2942.2" from="e1479" to="e4436"/>
    <trip id="car_332" depart="2951.6" from="e4876" to="e4918"/>
    <trip id="car_333" depart="2961.6" from="e2563" to="e37"/>
    <trip id="car_334" depart="2970.8" from="e4264" to="e2914"/>
    <trip id="car_335" depart="2979.2" from="e3229" to="e1021"/>
    <trip id="car_336" depart="2986.8" from="e3670" to="e3761"/>
    <trip id="car_337" depart="2996.9" from="e3334" to="e650"/>
    <trip id="car_338" depart="3006.2" from="e2620" to="e864"/>
    <trip id="car_339" depart="3013.8" from="e4833" to="e369"/>
    <trip id="car_340" depart="3023.4" from="e384" to="e3098"/>
    <trip id="car_341" depart="3032.9" from="e761" to="e4434"/>
    <trip id="car_342" depart="3040.2" from="e1478" to="e1319"/>
    <trip id="car_343" depart="3048.9" from="e3747" to="e1748"/>
    <trip id="car_344" depart="3059.7" from="e2120" to="e3996"/>
    <trip id="car_345" depart="3067.8" from="e3436" to="e2101"/>
    <trip id="car_346" depart="3075.8" from="e1636" to="e2435"/>
    <trip id="car_347" depart="3085.5" from="e3684" to="e4339"/>
    <trip id="car_348" depart="3095.3" from="e2360" to="e112"/>
    <trip id="car_349" depart="3104.2" from="e1795" to="e2281"/>
    <trip id="car_350" depart="3111.5" from="e1603" to="e4856"/>
    <trip id="car_351" depart="3120.6" from="e2689" to="e859"/>
    <trip id="car_352" depart="3130.6" from="e2920" to="e4010"/>
    <trip id="car_353" depart="3139.5" from="e3229" to="e3872"/>
    <trip id="car_354" depart="3148.0" from="e180" to="e408"/>
    <trip id="car_355" depart="3156.7" from="e1983" to="e4482"/>
    <trip id="car_356" depart="3166.0" from="e4533" to="e2471"/>
    <trip id="car_357" depart="3174.4" from="e2193" to="e1399"/>
    <trip id="car_358" depart="3182.6" from="e563" to="e971"/>
    <trip id="car_359" depart="3191.6" from="e4850" to="e3967"/>
    <trip id="car_360" depart="3201.7" from="e4450" to="e3139"/>
    <trip id="car_361" depart="3210.8" from="e2207" to="e4437"/>
    <trip id="car_362" depart="3217.9" from="e1438" to="e4302"/>
    <trip id="car_363" depart="3227.8" from="e2130" to="e3598"/>
    <trip id="car_364" depart="3237.2" from="e1497" to="e4525"/>
    <trip id="car_365" depart="3246.1" from="e3624" to="e4604"/>
    <trip id="car_366" depart="3253.6" from="e515" to="e687"/>
    <trip id="car_367" depart="3262.5" from="e4507" to="e3913"/>
    <trip id="car_368" depart="3272.6" from="e4449" to="e1266"/>
    <trip id="car_369" depart="3280.9" from="e3312" to="e430"/>
    <trip id="car_370" depart="3290.7" from="e2034" to="e2544"/>
    <trip id="car_371" depart="3298.5" from="e868" to="e2929"/>
    <trip id="car_372" depart="3307.7" from="e3655" to="e4438"/>
    <trip id="car_373" depart="3315.6" from="e2354" to="e4269"/>
    <trip id="car_374" depart="3326.4" from="e3777" to="e3255"/>
    <trip id="car_375" depart="3334.9" from="e22" to="e1579"/>
    <trip id="car_376" depart="3344.2" from="e3335" to="e2238"/>
    <trip id="car_377" depart="3351.9" from="e274" to="e1769"/>
    <trip id="car_378" depart="3362.0" from="e2217" to="e4726"/>
    <trip id="car_379" depart="3370.4" from="e1841" to="e649"/>
    <trip id="car_380" depart="3379.8" from="e4742" to="e2003"/>
    <trip id="car_381" depart="3388.1" from="e2254" to="e4734"/>
    <trip id="car_382" depart="3396.2" from="e4271" to="e1179"/>
    <trip id="car_383" depart="3405.3" from="e3099" to="e3495"/>
    <trip id="car_384" depart="3413.7" from="e3747" to="e2780"/>
    <trip id="car_385" depart="3423.7" from="e1494" to="e2399"/>
    <trip id="car_386" depart="3431.3" from="e1656" to="e4401"/>
    <trip id="car_387" depart="3440.4" from="e3863" to="e3493"/>
    <trip id="car_388" depart="3449.0" from="e3416" to="e2642"/>
    <trip id="car_389" depart="3458.8" from="e349" to="e723"/>
    <trip id="car_390" depart="3467.9" from="e1748" to="e3503"/>
    <trip id="car_391" depart="3475.9" from="e2093" to="e952"/>
    <trip id="car_392" depart="3485.1" from="e1081" to="e121"/>
    <trip id="car_393" depart="3494.2" from="e2544" to="e4211"/>
    <trip id="car_394" depart="3503.1" from="e2811" to="e2753"/>
    <trip id="car_395" depart="3511.6" from="e4807" to="e193"/>
    <trip id="car_396" depart="3520.4" from="e4821" to="e4590"/>
    <trip id="car_397" depart="3530.1" from="e27" to="e4720"/>
    <trip id="car_398" depart="3539.3" from="e3272" to="e4103"/>
    <trip id="car_399" depart="3547.1" from="e3765" to="e4440"/>
    <trip id="car_400" depart="3556.5" from="e4867" to="e4145"/>
    <trip id="car_401" depart="3566.1" from="e4662" to="e3514"/>
    <trip id="car_402" depart="3574.9" from="e2407" to="e463"/>
    <trip id="car_403" depart="3583.8" from="e3018" to="e3375"/>
    <trip id="car_404" depart="3592.4" from="e2751" to="e2947"/>
</trips>
