<?xml version="1.0" encoding="UTF-8"?>
<!-- Route Bank: 509 routes -->
<!-- Short: 508 | Medium: 1 | Long: 0 -->
<routes>
    <vType id="boost_car" accel="2.6" decel="4.5" sigma="0.5" length="4.5" maxSpeed="16.67" color="0.2,0.5,0.9"/>

    <route id="route_463" edges="e3789 e3791 e3793 e3795 e3797 e3799 e3801 e2795 e4808 e1040 e1430 e1428 e2476 e284 e4806 e2862 e22 e4588 e3266 e3511 e3492 e2011 e3282 e2934 e3459 e1647 e46"/>
    <route id="route_46" edges="e1861 e1863 e1865 e1867 e962 e871 e61 e2346 e1774 e2344 e2506 e2657 e27 e29 e31 e1422 e1420 e1418 e2610 e2608 e3573 e3575 e3577 e3579 e998 e996"/>
    <route id="route_105" edges="e2033 e2035 e3225 e4265 e2038 e2036 e2034 e1040 e1430 e1428 e2476 e284 e4806 e2862 e22 e4588 e3266 e4330 e431 e2258 e439 e441 e443 e445 e447 e449"/>
    <route id="route_180" edges="e38 e36 e34 e1132 e1130 e1128 e3872 e2084 e2082 e1402 e611 e24 e22 e3124 e3256 e972 e978 e1378 e1114 e1112 e1110 e1108 e1106 e1507 e3897 e1103"/>
    <route id="route_386" edges="e4107 e2978 e3199 e4716 e3134 e3376 e3558 e3123 e21 e2861 e4805 e283 e2475 e1427 e1429 e1039 e4807 e2796 e3802 e3800 e3798 e3796 e3794 e3792 e3790 e3788"/>
    <route id="route_52" edges="e338 e336 e334 e332 e1430 e1428 e2476 e284 e4806 e2862 e22 e812 e69 e547 e4167 e3133 e3246 e2064 e2981 e2736 e2734 e4094 e4092 e4090 e4088"/>
    <route id="route_145" edges="e3055 e4808 e1040 e1430 e1428 e2476 e284 e4806 e2862 e22 e812 e69 e71 e2695 e673 e3416 e3414 e2822 e2986 e2984 e1211 e2138 e2136 e2134 e2132"/>
    <route id="route_196" edges="e205 e2127 e2129 e2075 e108 e1661 e715 e220 e218 e4588 e3266 e3511 e3492 e2011 e3282 e2934 e3459 e1712 e903 e905 e1487 e3330 e3328 e3326 e3324"/>
    <route id="route_485" edges="e1946 e1944 e1942 e1940 e1938 e1936 e1195 e4696 e2926 e2924 e371 e2252 e1013 e2648 e72 e2588 e2506 e1399 e1401 e1403 e3913 e3915 e1417 e1419 e1421"/>
    <route id="route_497" edges="e1512 e1510 e2060 e2058 e832 e4193 e4890 e4896 e3134 e3376 e3558 e3123 e21 e2861 e4805 e283 e2475 e1427 e1429 e1039 e2033 e2035 e3225 e4265 e2038"/>
    <route id="route_142" edges="e1123 e1 e4899 e4508 e1993 e3541 e1909 e3938 e3936 e3934 e3932 e4114 e980 e843 e845 e244 e3213 e3215 e3217 e3219 e2445 e3642 e3640 e3638"/>
    <route id="route_255" edges="e908 e906 e904 e1711 e3460 e2933 e3281 e2012 e3491 e3512 e3265 e4587 e21 e23 e612 e1401 e2081 e2602 e4687 e1129 e1131 e33 e35 e1407"/>
    <route id="route_258" edges="e2503 e4199 e4861 e2361 e4815 e242 e240 e3440 e72 e2588 e2506 e2657 e27 e29 e31 e1422 e1420 e1418 e2610 e2608 e3379 e1415 e1256 e2211"/>
    <route id="route_263" edges="e3352 e3350 e3348 e3346 e3344 e1723 e1725 e1727 e1729 e4464 e2120 e371 e2252 e1013 e2648 e72 e858 e494 e492 e856 e3383 e3385 e4069 e564"/>
    <route id="route_111" edges="e88 e4000 e2905 e89 e1343 e671 e2696 e72 e70 e791 e1363 e4857 e2422 e3296 e3294 e1596 e3824 e3978 e4026 e4024 e4022 e4020 e4018"/>
    <route id="route_159" edges="e3785 e3787 e3789 e3791 e3793 e3795 e3797 e3799 e3801 e2795 e4808 e1040 e1430 e1428 e2476 e284 e4806 e2862 e22 e4588 e3266 e3685 e944"/>
    <route id="route_161" edges="e3656 e928 e708 e706 e704 e4111 e3882 e3724 e283 e2475 e1427 e2634 e2632 e2213 e2215 e2217 e2463 e2465 e1032 e1030 e1028 e1026 e1024"/>
    <route id="route_262" edges="e2214 e3380 e2607 e2609 e1417 e1419 e1421 e32 e30 e28 e2658 e2505 e2587 e547 e4167 e3133 e4895 e4889 e165 e4284 e4685 e4711 e1884"/>
    <route id="route_320" edges="e327 e38 e36 e34 e1132 e1130 e1128 e3872 e2084 e2082 e1402 e1400 e2505 e2587 e547 e4167 e3133 e4715 e1930 e2116 e2377 e4098 e4660"/>
    <route id="route_479" edges="e3791 e3793 e3795 e3797 e3799 e3801 e2795 e4808 e1040 e1430 e1428 e2476 e284 e4806 e4924 e379 e3294 e3628 e3169 e3830 e1048 e354 e1046"/>
    <route id="route_495" edges="e2214 e3380 e2607 e2609 e1417 e1419 e1421 e32 e30 e28 e2658 e2505 e2587 e547 e4167 e3133 e3246 e2064 e2981 e2736 e2734 e4094 e4092"/>
    <route id="route_79" edges="e2430 e2428 e3660 e4959 e2378 e2115 e1929 e4716 e3134 e4168 e548 e2588 e2506 e1399 e1329 e3771 e2999 e3001 e2673 e3423 e3425 e3648"/>
    <route id="route_114" edges="e601 e2477 e2479 e2481 e1593 e1595 e3957 e1077 e1079 e979 e981 e3929 e3931 e3933 e3935 e3937 e1910 e3542 e1994 e4507 e4900 e2"/>
    <route id="route_183" edges="e1108 e1106 e1507 e3897 e1103 e1105 e1107 e1109 e1111 e1113 e1377 e4624 e4774 e72 e70 e791 e1527 e937 e1981 e225 e4635 e890"/>
    <route id="route_236" edges="e4289 e4291 e4293 e2415 e1909 e3938 e3936 e3934 e3932 e4114 e980 e843 e845 e244 e3213 e3215 e3217 e3219 e2445 e2447 e2449 e4073"/>
    <route id="route_252" edges="e2078 e1190 e1188 e4782 e1236 e2340 e1292 e2338 e1425 e1427 e1429 e1039 e4807 e2796 e3802 e3800 e3798 e3796 e3794 e3792 e3790 e3788"/>
    <route id="route_291" edges="e3350 e3348 e3346 e3344 e1723 e1725 e1727 e1729 e4464 e2120 e371 e2252 e1013 e2648 e72 e858 e494 e1185 e1187 e2101 e591 e3918"/>
    <route id="route_335" edges="e1415 e1256 e2211 e3380 e2607 e2609 e1417 e1419 e1421 e32 e30 e28 e2658 e2505 e2587 e71 e3439 e239 e183 e1994 e4507 e1122"/>
    <route id="route_454" edges="e3580 e3578 e3576 e3574 e2607 e2609 e1417 e1419 e1421 e32 e30 e28 e2658 e2505 e2587 e71 e3439 e239 e183 e1994 e3140 e2027"/>
    <route id="route_10" edges="e3781 e2808 e2738 e2982 e953 e3136 e3134 e3376 e3558 e3123 e21 e2861 e4805 e283 e2475 e1427 e1429 e1039 e2033 e2035 e3225"/>
    <route id="route_60" edges="e2758 e3051 e2617 e2177 e2757 e2759 e2164 e2162 e1428 e2476 e284 e4806 e2862 e22 e4588 e3266 e94 e92 e2684 e1534 e4647"/>
    <route id="route_70" edges="e3851 e4083 e4916 e3854 e3852 e99 e4946 e3512 e3265 e4587 e21 e2861 e4805 e283 e2475 e1427 e2007 e1219 e1221 e1223 e1166"/>
    <route id="route_77" edges="e2849 e2851 e2853 e2855 e2857 e2859 e1259 e3611 e3402 e1800 e2198 e2079 e2081 e2602 e4687 e1129 e1131 e33 e35 e37 e3144"/>
    <route id="route_97" edges="e331 e3223 e1040 e1430 e1428 e2476 e284 e3723 e3881 e4112 e703 e705 e707 e927 e1267 e3356 e3354 e3352 e3350 e3348 e3346"/>
    <route id="route_112" edges="e4204 e4824 e2350 e871 e873 e3041 e3123 e21 e2861 e4805 e283 e2475 e1427 e2161 e2163 e2760 e2758 e3051 e2617 e2177 e2757"/>
    <route id="route_146" edges="e2564 e186 e3541 e1909 e3938 e3936 e3934 e3932 e4114 e980 e1080 e804 e802 e800 e798 e732 e730 e728 e726 e724 e3093"/>
    <route id="route_176" edges="e4084 e3852 e99 e4946 e3512 e3265 e4587 e21 e23 e612 e1401 e2081 e2602 e4687 e1129 e1131 e33 e35 e37 e3144 e2603"/>
    <route id="route_261" edges="e3791 e3793 e3795 e3797 e3799 e3801 e2795 e4808 e1040 e1430 e1428 e2476 e284 e4806 e2862 e22 e3124 e4495 e1015 e1819 e1821"/>
    <route id="route_356" edges="e4916 e3854 e3852 e99 e4946 e3512 e3495 e1361 e791 e1363 e4857 e2422 e540 e244 e3213 e3215 e3217 e3219 e1044 e1042 e4054"/>
    <route id="route_397" edges="e3580 e3578 e3576 e3574 e2607 e2609 e1417 e1419 e1421 e32 e30 e28 e26 e24 e22 e4588 e3266 e3511 e3492 e2011 e914"/>
    <route id="route_427" edges="e2626 e2790 e2069 e2071 e2788 e2128 e206 e204 e220 e218 e4588 e3266 e3511 e3492 e2011 e3282 e2934 e3459 e1712 e903 e1486"/>
    <route id="route_430" edges="e351 e1046 e3220 e3218 e3216 e3214 e243 e846 e844 e979 e981 e3929 e3931 e3933 e3935 e3937 e1910 e3542 e1994 e6 e2028"/>
    <route id="route_443" edges="e1044 e4606 e2446 e3220 e3218 e3216 e3214 e243 e846 e844 e979 e981 e3929 e3931 e3933 e3935 e3937 e1910 e3542 e1995 e3773"/>
    <route id="route_501" edges="e2315 e2317 e2304 e2302 e2300 e2298 e4112 e703 e705 e707 e927 e3201 e3203 e3205 e3248 e3246 e1989 e1975 e432 e2706 e4887"/>
    <route id="route_17" edges="e506 e721 e1048 e354 e1046 e3220 e3218 e3216 e3214 e243 e245 e3155 e3157 e4348 e2870 e2868 e968 e3572 e3570 e3568"/>
    <route id="route_19" edges="e3642 e3640 e3638 e1177 e4041 e1595 e3293 e3295 e2421 e4858 e1364 e792 e1362 e3496 e3511 e4945 e100 e3851 e4707 e1154"/>
    <route id="route_44" edges="e2424 e1493 e166 e4890 e4896 e3134 e4168 e548 e2588 e2506 e1399 e1401 e2081 e2602 e4687 e1129 e1131 e33 e35 e37"/>
    <route id="route_91" edges="e2796 e2794 e4810 e4808 e1040 e1430 e1428 e2476 e284 e4806 e2862 e22 e3124 e3256 e239 e241 e4816 e2362 e4862 e4201"/>
    <route id="route_115" edges="e2935 e2937 e4508 e1993 e3541 e1909 e3938 e3936 e3934 e3932 e4114 e980 e1080 e1078 e3958 e1596 e1594 e1592 e1590 e2698"/>
    <route id="route_116" edges="e4915 e4084 e3852 e99 e4946 e3512 e3495 e1361 e791 e1363 e4857 e2422 e540 e244 e3213 e3215 e3217 e3219 e2439 e3562"/>
    <route id="route_117" edges="e2206 e4267 e2842 e2840 e3990 e4168 e548 e70 e791 e1363 e4857 e2422 e3296 e3294 e3628 e3169 e3830 e1048 e354 e352"/>
    <route id="route_129" edges="e2852 e2850 e1805 e4651 e971 e3440 e72 e2588 e2506 e2657 e27 e29 e31 e1422 e1420 e1418 e2610 e2608 e3379 e2213"/>
    <route id="route_141" edges="e3528 e3526 e2683 e1343 e671 e2696 e72 e70 e791 e1363 e4857 e2422 e3296 e3294 e1596 e4042 e2324 e4052 e4050 e1616"/>
    <route id="route_178" edges="e4103 e3533 e3662 e3660 e4959 e2378 e2115 e1929 e4716 e3134 e4168 e548 e2646 e1920 e310 e2835 e2899 e2901 e3088 e2990"/>
    <route id="route_184" edges="e4517 e4519 e3063 e3065 e1706 e1704 e4931 e3512 e1496 e166 e2875 e1931 e955 e2117 e2923 e2925 e4695 e1196 e1194 e3940"/>
    <route id="route_193" edges="e3633 e3635 e1335 e1337 e1339 e1341 e1343 e671 e2696 e72 e70 e791 e1363 e4857 e2422 e3296 e3294 e1596 e4042 e4541"/>
    <route id="route_230" edges="e1610 e3715 e1595 e3293 e3295 e2421 e4858 e1364 e792 e69 e547 e4167 e3133 e3135 e3762 e4239 e738 e3701 e3703 e2707"/>
    <route id="route_239" edges="e2313 e2315 e2317 e2305 e295 e297 e299 e497 e1133 e284 e4806 e2862 e22 e3124 e3256 e239 e183 e1994 e4106 e3337"/>
    <route id="route_250" edges="e3505 e2153 e3903 e40 e2008 e1428 e2476 e284 e4806 e2862 e22 e812 e69 e547 e4167 e3133 e4829 e2948 e3755 e3827"/>
    <route id="route_271" edges="e3359 e1634 e1591 e1593 e1595 e3957 e1077 e1079 e979 e981 e3929 e3931 e3933 e3935 e3937 e1910 e3542 e185 e187 e4738"/>
    <route id="route_295" edges="e3586 e4138 e2591 e184 e240 e3255 e3123 e21 e2861 e4805 e283 e2475 e1427 e1429 e1039 e2033 e2035 e3225 e1172 e3825"/>
    <route id="route_299" edges="e351 e1046 e3220 e3218 e3216 e3214 e243 e846 e844 e979 e981 e3929 e3931 e3933 e3935 e3937 e1910 e2416 e3775 e4067"/>
    <route id="route_304" edges="e2613 e2615 e3052 e2757 e2759 e2164 e2162 e1428 e2476 e284 e4806 e2862 e22 e4588 e3266 e94 e92 e1342 e1340 e1338"/>
    <route id="route_346" edges="e3583 e4138 e2591 e3541 e1909 e3938 e3936 e3934 e3932 e4114 e980 e1080 e804 e802 e800 e798 e732 e730 e728 e726"/>
    <route id="route_351" edges="e4265 e2038 e2036 e2034 e1040 e1430 e1428 e2476 e284 e4806 e2862 e22 e812 e69 e547 e4167 e3133 e4715 e1930 e3657"/>
    <route id="route_354" edges="e769 e4008 e4006 e4004 e1113 e1377 e2869 e4347 e3158 e3156 e246 e244 e3213 e3215 e3217 e3219 e1045 e353 e1047 e723"/>
    <route id="route_387" edges="e2777 e4783 e2669 e2671 e1675 e1677 e453 e455 e489 e3401 e3612 e1260 e2860 e2858 e2872 e2870 e2497 e2462 e760 e1161"/>
    <route id="route_412" edges="e2517 e1818 e1816 e1341 e1343 e671 e152 e2344 e2506 e1399 e1401 e2081 e2602 e4687 e1129 e1131 e33 e35 e37 e328"/>
    <route id="route_435" edges="e2223 e1485 e904 e1711 e3460 e2933 e3281 e2012 e3491 e3512 e1089 e671 e152 e150 e494 e492 e856 e854 e3436 e1021"/>
    <route id="route_439" edges="e4939 e4004 e1113 e1377 e977 e971 e3255 e3123 e21 e2861 e4805 e283 e1134 e498 e300 e298 e296 e2306 e2318 e2316"/>
    <route id="route_468" edges="e1411 e2605 e2607 e2609 e1417 e1419 e1421 e32 e30 e28 e2658 e2505 e2587 e547 e4167 e3133 e4715 e4458 e1876 e2051"/>
    <route id="route_491" edges="e4915 e4084 e3852 e99 e4946 e3512 e3265 e4587 e21 e23 e612 e1401 e1403 e995 e4191 e2463 e2465 e1033 e1035 e1037"/>
    <route id="route_1" edges="e3638 e1177 e4041 e1595 e3293 e3295 e2421 e4858 e1364 e792 e69 e547 e4167 e3133 e4530 e3138 e833 e3994 e2058"/>
    <route id="route_7" edges="e3639 e3641 e2446 e3220 e3218 e3216 e3214 e243 e539 e2421 e4858 e1364 e792 e1362 e4242 e428 e426 e4110 e2441"/>
    <route id="route_15" edges="e2338 e1133 e284 e3723 e3881 e4112 e703 e705 e707 e927 e1267 e372 e2923 e2925 e4695 e1196 e1935 e3939 e1193"/>
    <route id="route_23" edges="e3717 e4703 e3170 e3627 e3293 e3295 e2421 e4858 e1364 e792 e69 e547 e4167 e3133 e3135 e3762 e2710 e2708 e2884"/>
    <route id="route_24" edges="e3826 e3055 e2796 e3802 e3800 e3798 e3796 e3794 e3792 e3790 e3788 e3786 e171 e2423 e4685 e4717 e825 e827 e3779"/>
    <route id="route_30" edges="e1208 e3616 e3541 e1909 e3938 e3936 e3934 e3932 e4114 e980 e1080 e1078 e3958 e1596 e4042 e1178 e3637 e3639 e3641"/>
    <route id="route_39" edges="e3988 e1610 e3715 e1595 e3957 e1077 e1079 e979 e981 e3929 e3931 e3933 e3935 e3937 e1910 e3542 e1994 e6 e4646"/>
    <route id="route_51" edges="e4394 e4942 e1364 e792 e69 e71 e2695 e672 e1344 e1342 e2326 e919 e3321 e3323 e3325 e3327 e3329 e2513 e908"/>
    <route id="route_56" edges="e2112 e2110 e4532 e4602 e671 e2696 e72 e70 e791 e1363 e4857 e2422 e3296 e3294 e3628 e3169 e3830 e3093 e357"/>
    <route id="route_62" edges="e3026 e1212 e2983 e2985 e2821 e3413 e3415 e674 e152 e2344 e2506 e1399 e4313 e4523 e195 e197 e3308 e3306 e3304"/>
    <route id="route_66" edges="e3344 e1723 e1725 e1727 e1729 e4464 e2120 e2118 e956 e1932 e2876 e165 e1495 e94 e92 e2684 e1534 e1532 e4638"/>
    <route id="route_80" edges="e1562 e2691 e2693 e2836 e309 e1919 e2645 e547 e4167 e3133 e3246 e2064 e2981 e2736 e2734 e4094 e4092 e4090 e4088"/>
    <route id="route_83" edges="e3094 e3829 e3170 e3627 e3293 e3295 e2421 e4858 e1364 e792 e1362 e3496 e3511 e4945 e100 e3851 e4083 e4085 e4087"/>
    <route id="route_92" edges="e1590 e3988 e1610 e3715 e1595 e3293 e3295 e2421 e4858 e1364 e792 e1362 e4495 e1014 e2251 e372 e2119 e4463 e1730"/>
    <route id="route_94" edges="e3928 e998 e996 e1404 e1402 e1400 e2505 e2587 e547 e4167 e3133 e3135 e3762 e4239 e738 e3701 e3703 e2707 e2709"/>
    <route id="route_96" edges="e3810 e4849 e2421 e4858 e1364 e792 e69 e547 e4167 e3133 e4829 e2948 e1071 e1073 e452 e450 e448 e446 e444"/>
    <route id="route_99" edges="e2235 e2237 e951 e953 e3136 e3247 e3206 e3204 e3202 e928 e708 e706 e704 e4111 e3882 e4966 e280 e529 e3874"/>
    <route id="route_100" edges="e3907 e694 e1619 e4974 e4972 e4970 e4968 e3401 e3612 e1260 e2860 e2858 e2872 e2870 e2868 e968 e3032 e2503 e4199"/>
    <route id="route_125" edges="e2122 e2120 e371 e1268 e928 e708 e706 e704 e4111 e3882 e3724 e283 e2475 e1427 e2007 e39 e41 e4470 e1222"/>
    <route id="route_126" edges="e2313 e2315 e2317 e2304 e2302 e2300 e2298 e4112 e703 e705 e707 e927 e3201 e3203 e3205 e3248 e4715 e3200 e2977"/>
    <route id="route_128" edges="e2214 e3380 e2607 e2609 e1417 e1419 e1421 e32 e30 e28 e2658 e2505 e2587 e547 e4167 e3133 e4883 e1368 e842"/>
    <route id="route_135" edges="e2325 e1341 e1343 e671 e2696 e72 e70 e791 e1363 e4857 e2422 e3296 e3294 e1596 e3824 e3978 e4073 e4075 e3638"/>
    <route id="route_148" edges="e1604 e1041 e1043 e3220 e3218 e3216 e3214 e243 e846 e844 e979 e981 e3929 e3931 e3933 e3935 e3937 e1911 e3335"/>
    <route id="route_149" edges="e3854 e3852 e99 e4946 e3512 e3265 e4587 e21 e2861 e4805 e283 e2475 e1427 e2161 e2163 e2760 e2758 e3051 e2616"/>
    <route id="route_157" edges="e3503 e3505 e2153 e3903 e40 e2008 e1428 e2476 e284 e3723 e3881 e4112 e703 e705 e707 e927 e1267 e1269 e4754"/>
    <route id="route_185" edges="e6 e4655 e3113 e3421 e2498 e2869 e4347 e3158 e3156 e246 e244 e3213 e3215 e3217 e3219 e2445 e2447 e2449 e4073"/>
    <route id="route_186" edges="e4486 e4484 e4602 e671 e2696 e72 e70 e791 e1363 e4857 e2422 e3296 e3294 e3628 e3169 e3830 e1048 e354 e352"/>
    <route id="route_201" edges="e3657 e2378 e2115 e1929 e4716 e3134 e4168 e548 e70 e791 e1363 e4857 e2422 e3296 e3294 e1596 e4042 e2324 e4052"/>
    <route id="route_204" edges="e459 e1833 e1835 e1564 e1562 e2691 e2693 e2836 e308 e4588 e3266 e3511 e3492 e2011 e3282 e2934 e3459 e1646 e2223"/>
    <route id="route_212" edges="e419 e1040 e1430 e1428 e2476 e284 e4806 e2862 e22 e812 e69 e547 e4167 e3133 e4715 e1930 e2116 e4659 e2000"/>
    <route id="route_222" edges="e4312 e953 e3136 e3134 e3376 e3558 e3123 e21 e2861 e4805 e283 e2475 e1427 e1429 e1039 e2033 e2035 e2037 e3826"/>
    <route id="route_227" edges="e3097 e1152 e1150 e1584 e4320 e96 e3265 e4587 e217 e219 e203 e205 e2127 e2787 e2072 e2070 e2789 e2624 e2067"/>
    <route id="route_232" edges="e4815 e1996 e3541 e1909 e3938 e3936 e3934 e3932 e4114 e980 e843 e845 e244 e3213 e3215 e3217 e3219 e1044 e1042"/>
    <route id="route_235" edges="e3723 e2524 e1698 e2862 e22 e4588 e3266 e94 e92 e1342 e2326 e919 e3321 e3323 e3325 e3327 e3329 e1489 e1491"/>
    <route id="route_253" edges="e4378 e965 e967 e969 e971 e3440 e72 e2588 e2506 e1399 e1401 e2081 e2602 e4687 e1129 e1131 e33 e35 e37"/>
    <route id="route_259" edges="e1945 e4660 e2115 e1929 e4716 e3134 e4168 e548 e70 e791 e1363 e4857 e2422 e3296 e3294 e1596 e3824 e1606 e2243"/>
    <route id="route_265" edges="e1659 e2354 e2500 e1658 e4774 e2647 e4496 e3123 e21 e2861 e4805 e283 e2475 e1427 e2007 e39 e3904 e2155 e42"/>
    <route id="route_267" edges="e401 e403 e2654 e855 e2328 e4942 e1364 e792 e1362 e3496 e3511 e3492 e2011 e3282 e2934 e3459 e1712 e903 e2015"/>
    <route id="route_272" edges="e1428 e2476 e284 e4806 e2862 e22 e812 e69 e547 e4167 e3133 e4715 e1930 e2116 e4659 e1946 e1944 e1942 e1940"/>
    <route id="route_278" edges="e1891 e1893 e1895 e3023 e657 e3689 e2645 e71 e3656 e1267 e372 e2923 e2925 e4695 e1196 e1935 e3939 e1193 e1195"/>
    <route id="route_285" edges="e143 e145 e147 e149 e151 e672 e1090 e3511 e3492 e2011 e3282 e2934 e3459 e1712 e903 e905 e1487 e3330 e3328"/>
    <route id="route_287" edges="e3567 e3569 e3571 e967 e2867 e2869 e4347 e3158 e3156 e246 e244 e3213 e3215 e3217 e3219 e1045 e353 e1047 e723"/>
    <route id="route_309" edges="e1618 e2244 e1605 e3823 e1595 e3293 e3295 e2421 e4858 e1364 e792 e1362 e3496 e3511 e4945 e100 e3851 e4707 e2910"/>
    <route id="route_331" edges="e714 e2622 e109 e4805 e283 e2475 e1427 e1429 e1039 e4807 e2796 e3802 e3800 e3798 e3796 e3794 e3792 e3790 e3788"/>
    <route id="route_371" edges="e1615 e4383 e1634 e1591 e1593 e1595 e3293 e3295 e2421 e4858 e1364 e792 e69 e547 e4167 e3133 e4530 e3138 e832"/>
    <route id="route_390" edges="e3505 e2153 e3903 e40 e2008 e1428 e2476 e284 e3723 e3881 e4112 e703 e705 e707 e927 e1267 e4195 e4753 e1270"/>
    <route id="route_398" edges="e1726 e1724 e3343 e3345 e3347 e3349 e3351 e3353 e3355 e2252 e1013 e2648 e72 e2646 e3690 e1062 e1060 e2747 e2995"/>
    <route id="route_438" edges="e4829 e4790 e4884 e3134 e4168 e548 e70 e791 e1363 e4857 e2422 e540 e244 e3213 e3215 e3217 e3219 e2445 e2447"/>
    <route id="route_445" edges="e3213 e3215 e3217 e3219 e1045 e353 e1047 e3829 e3170 e3627 e3293 e4394 e3735 e1979 e1981 e225 e4635 e891 e51"/>
    <route id="route_447" edges="e3660 e4959 e2378 e2115 e1929 e4716 e3134 e3132 e2418 e3938 e3936 e3934 e3932 e4114 e980 e1260 e1258 e3532 e4429"/>
    <route id="route_448" edges="e1809 e2358 e2500 e1658 e4774 e72 e2588 e2506 e1399 e1401 e2081 e2602 e2091 e3647 e3426 e3424 e2674 e3002 e3000"/>
    <route id="route_462" edges="e3678 e4282 e4193 e4890 e4896 e3247 e3206 e3204 e3202 e928 e708 e706 e704 e4111 e3882 e4966 e280 e529 e2649"/>
    <route id="route_473" edges="e1025 e1027 e1029 e1031 e2466 e2464 e4192 e996 e1404 e1402 e611 e24 e22 e4588 e3266 e3511 e4932 e3445 e161"/>
    <route id="route_476" edges="e2453 e657 e3689 e2645 e71 e2647 e1014 e2251 e3356 e3354 e3352 e3350 e3348 e3346 e3344 e1723 e1725 e1727 e1729"/>
    <route id="route_493" edges="e1617 e1043 e3220 e3218 e3216 e3214 e243 e539 e2421 e4858 e1364 e792 e69 e547 e4167 e3133 e3246 e2064 e2981"/>
    <route id="route_505" edges="e1132 e1130 e1128 e3872 e2084 e2082 e1402 e1400 e2505 e2587 e547 e4167 e3133 e4715 e3200 e4455 e1516 e4552 e4550"/>
    <route id="route_5" edges="e2617 e2177 e2757 e2759 e2164 e2162 e1428 e2476 e284 e4806 e2862 e22 e4588 e268 e4664 e4601 e4531 e1838"/>
    <route id="route_8" edges="e87 e89 e1343 e671 e2696 e72 e70 e791 e1363 e4857 e2422 e3296 e3294 e1596 e4042 e2324 e4052 e4050"/>
    <route id="route_21" edges="e2844 e4268 e3834 e121 e123 e3832 e928 e708 e706 e704 e4111 e2297 e2299 e2301 e2303 e2318 e2316 e2314"/>
    <route id="route_27" edges="e4354 e4352 e4419 e4421 e3972 e1404 e1402 e611 e24 e22 e3124 e3256 e239 e1565 e4294 e4292 e4290 e4288"/>
    <route id="route_31" edges="e3248 e3134 e3376 e3558 e3123 e21 e2861 e4805 e283 e2475 e1427 e2161 e2163 e2760 e2758 e3050 e2169 e2180"/>
    <route id="route_58" edges="e3562 e3560 e1182 e3715 e1595 e3293 e3295 e2421 e4858 e1364 e792 e1362 e3042 e874 e872 e961 e1868 e1207"/>
    <route id="route_59" edges="e1410 e3890 e998 e996 e1404 e1402 e1400 e2505 e2587 e547 e4167 e3133 e4715 e1930 e2116 e2377 e4732 e2408"/>
    <route id="route_63" edges="e3533 e3662 e3660 e4959 e2378 e2115 e1929 e4716 e3134 e4168 e548 e2588 e2506 e1399 e1401 e1403 e995 e4191"/>
    <route id="route_65" edges="e3994 e2058 e832 e4193 e4890 e4896 e3247 e3206 e3204 e3202 e928 e708 e706 e704 e4111 e2296 e3403 e3405"/>
    <route id="route_71" edges="e3637 e3639 e3641 e2446 e3220 e3218 e3216 e3214 e243 e245 e3155 e3157 e4348 e2870 e2497 e2499 e3749 e2433"/>
    <route id="route_73" edges="e1414 e2605 e3379 e2631 e2633 e1428 e2476 e284 e3723 e3881 e4112 e703 e705 e707 e927 e1267 e372 e2923"/>
    <route id="route_107" edges="e1492 e1490 e3330 e3328 e3326 e3324 e3322 e920 e2325 e1341 e1343 e671 e152 e2582 e2580 e2196 e896 e894"/>
    <route id="route_122" edges="e4110 e2441 e427 e4241 e3123 e21 e23 e25 e27 e29 e31 e1422 e1420 e1418 e2610 e2608 e3379 e1414"/>
    <route id="route_136" edges="e438 e436 e951 e953 e3136 e3134 e4168 e548 e546 e544 e203 e205 e2127 e2787 e2072 e2070 e2789 e2625"/>
    <route id="route_137" edges="e235 e1913 e981 e3929 e3931 e3933 e3935 e3937 e1910 e4498 e3511 e4945 e819 e2385 e4691 e3676 e3674 e3672"/>
    <route id="route_139" edges="e338 e336 e334 e332 e1430 e1428 e2476 e284 e4806 e2862 e22 e3124 e3256 e239 e183 e185 e187 e4441"/>
    <route id="route_154" edges="e3080 e3078 e3076 e1742 e1740 e4965 e3881 e4112 e703 e705 e707 e927 e1267 e372 e2119 e4463 e1933 e1198"/>
    <route id="route_158" edges="e2457 e3428 e3426 e3424 e2674 e3002 e3000 e3772 e1330 e1400 e2505 e2587 e547 e4167 e3377 e3208 e3206 e3204"/>
    <route id="route_169" edges="e309 e1919 e4490 e389 e391 e393 e25 e27 e29 e31 e1422 e1420 e1418 e2610 e2608 e3379 e2631 e2633"/>
    <route id="route_173" edges="e3650 e4534 e196 e4524 e4314 e1400 e2505 e2587 e547 e4167 e3133 e3246 e1989 e3625 e439 e441 e443 e1873"/>
    <route id="route_177" edges="e2035 e3225 e4265 e2038 e2036 e2034 e1040 e1430 e1428 e2476 e284 e4806 e2862 e22 e3124 e3256 e239 e1565"/>
    <route id="route_187" edges="e1669 e1671 e1673 e1675 e1677 e453 e455 e489 e2328 e4942 e1364 e792 e1362 e3496 e4330 e431 e433 e435"/>
    <route id="route_206" edges="e4149 e1118 e967 e2867 e2869 e4347 e3158 e3156 e246 e244 e3213 e3215 e3217 e3219 e2439 e510 e508 e506"/>
    <route id="route_217" edges="e1940 e1938 e1936 e1195 e4696 e2926 e2924 e371 e1268 e928 e708 e706 e704 e4111 e3882 e2524 e1137 e1139"/>
    <route id="route_226" edges="e451 e1074 e1072 e2947 e4830 e3134 e4168 e548 e70 e791 e1363 e4857 e2422 e3296 e3294 e1596 e2568 e1614"/>
    <route id="route_231" edges="e2721 e4563 e4390 e1402 e1400 e2505 e2587 e547 e4167 e3133 e4715 e1930 e2713 e1949 e2432 e2430 e2428 e3660"/>
    <route id="route_249" edges="e3056 e1170 e415 e4808 e1040 e1430 e1428 e2476 e284 e4806 e2862 e22 e4588 e3266 e3511 e3492 e2011 e2515"/>
    <route id="route_256" edges="e2322 e1605 e3823 e1595 e3293 e3295 e2421 e4858 e1364 e792 e1362 e3496 e1496 e4284 e1883 e1885 e3671 e3673"/>
    <route id="route_264" edges="e3040 e3199 e4716 e3134 e4168 e548 e70 e791 e1363 e4857 e2422 e3296 e3294 e1596 e4042 e4684 e2769 e2771"/>
    <route id="route_266" edges="e1460 e2626 e2790 e2069 e2071 e2788 e2128 e206 e204 e543 e545 e547 e4167 e3133 e4715 e1930 e2877 e748"/>
    <route id="route_270" edges="e2819 e2821 e3413 e3415 e674 e2696 e72 e70 e791 e1363 e4857 e2422 e3296 e3294 e1596 e4042 e2324 e4052"/>
    <route id="route_273" edges="e3382 e4054 e2323 e4041 e1595 e3293 e3295 e2421 e4858 e1364 e792 e1362 e3496 e3511 e4945 e819 e4363 e3258"/>
    <route id="route_284" edges="e2218 e2216 e2214 e3380 e2607 e2609 e3916 e3914 e1404 e2080 e2197 e1799 e490 e456 e454 e1678 e3067 e3706"/>
    <route id="route_288" edges="e4831 e2738 e2982 e953 e3136 e3134 e4168 e548 e858 e494 e492 e856 e2486 e560 e558 e556 e554 e552"/>
    <route id="route_289" edges="e826 e824 e4527 e4529 e3247 e3206 e3204 e3202 e928 e708 e706 e704 e4111 e3882 e3080 e3078 e3076 e1742"/>
    <route id="route_292" edges="e2729 e2731 e2733 e2735 e2982 e953 e3136 e3134 e4168 e548 e2588 e2506 e1399 e1288 e4800 e3968 e3843 e3885"/>
    <route id="route_303" edges="e2221 e1648 e3460 e2933 e3281 e2012 e3491 e3512 e3265 e4587 e21 e2861 e4805 e282 e280 e569 e1851 e1853"/>
    <route id="route_312" edges="e3938 e3936 e3934 e3932 e4114 e981 e3929 e3931 e3933 e3935 e3937 e1910 e2416 e3184 e915 e917 e919 e3321"/>
    <route id="route_316" edges="e1960 e3038 e3084 e1443 e2193 e2195 e2579 e3689 e2645 e547 e4167 e3133 e4895 e4889 e165 e4284 e1883 e1885"/>
    <route id="route_334" edges="e995 e997 e3580 e3578 e3576 e3574 e2607 e2609 e1417 e1419 e1421 e32 e30 e28 e26 e3867 e201 e221"/>
    <route id="route_355" edges="e3063 e3065 e1706 e1704 e4931 e3512 e1089 e671 e152 e150 e494 e492 e490 e456 e454 e3705 e3069 e3071"/>
    <route id="route_359" edges="e4148 e493 e857 e71 e2647 e1014 e2251 e3356 e3354 e3352 e3350 e3348 e3346 e3344 e1723 e1725 e1727 e1729"/>
    <route id="route_362" edges="e2924 e371 e1268 e928 e708 e706 e704 e4111 e3882 e3724 e283 e2475 e1427 e2007 e39 e3904 e2154 e3506"/>
    <route id="route_364" edges="e1912 e3938 e3936 e3934 e3932 e4114 e980 e843 e845 e244 e3213 e3215 e3217 e3219 e1044 e1042 e3381 e1617"/>
    <route id="route_403" edges="e4395 e4430 e3530 e3156 e246 e539 e651 e4923 e4805 e283 e1134 e498 e300 e298 e296 e2306 e2304 e3263"/>
    <route id="route_407" edges="e2428 e3660 e4959 e2378 e2115 e1929 e4716 e3134 e4168 e548 e858 e494 e492 e856 e2653 e404 e402 e400"/>
    <route id="route_411" edges="e53 e530 e279 e4965 e3881 e4112 e703 e705 e707 e927 e3201 e3203 e3205 e3248 e4715 e3197 e2817 e2052"/>
    <route id="route_415" edges="e1864 e1862 e1845 e2041 e2043 e2045 e2047 e4602 e671 e152 e2344 e2506 e1399 e1401 e1403 e995 e4191 e2463"/>
    <route id="route_418" edges="e823 e4718 e4686 e2424 e1493 e1495 e3265 e4587 e21 e2861 e4805 e283 e2475 e1427 e1429 e1039 e2032 e1924"/>
    <route id="route_419" edges="e2445 e4605 e1043 e3220 e3218 e3216 e3214 e243 e846 e844 e979 e981 e3929 e3931 e3933 e3935 e3937 e3663"/>
    <route id="route_420" edges="e3741 e3743 e3456 e2937 e4508 e1993 e184 e240 e3440 e72 e2588 e2506 e1399 e4313 e4523 e195 e197 e2680"/>
    <route id="route_421" edges="e3701 e3703 e2707 e2709 e3761 e3136 e3247 e3206 e3204 e3202 e928 e708 e706 e704 e4111 e618 e4700 e2330"/>
    <route id="route_432" edges="e2720 e2718 e2716 e603 e605 e4314 e1400 e2505 e2587 e71 e3439 e239 e183 e1994 e4507 e2938 e3455 e3457"/>
    <route id="route_434" edges="e4221 e4223 e4225 e4227 e4229 e2332 e2330 e703 e705 e707 e927 e3655 e2695 e672 e4601 e4270 e2983 e2985"/>
    <route id="route_444" edges="e3379 e2631 e2633 e1428 e2476 e284 e4806 e2862 e22 e4588 e3266 e94 e92 e1342 e2326 e919 e3321 e4057"/>
    <route id="route_446" edges="e35 e1407 e326 e3890 e998 e996 e1404 e1402 e1400 e2505 e2587 e547 e4167 e3133 e4829 e2948 e3755 e2830"/>
    <route id="route_449" edges="e3977 e3823 e1595 e3293 e3295 e2421 e4858 e1364 e792 e69 e547 e4167 e3133 e4715 e3200 e4455 e1516 e4552"/>
    <route id="route_453" edges="e2170 e3049 e2757 e2759 e2164 e2162 e1428 e2476 e284 e4806 e2862 e22 e4588 e3266 e4330 e4787 e2551 e169"/>
    <route id="route_455" edges="e870 e2824 e3413 e3415 e674 e152 e2344 e2506 e2657 e27 e29 e31 e1422 e1420 e1418 e2610 e2608 e3379"/>
    <route id="route_467" edges="e4088 e4086 e4084 e3852 e99 e4946 e3512 e3265 e4587 e21 e23 e612 e4313 e4523 e195 e197 e3308 e3306"/>
    <route id="route_471" edges="e3073 e3629 e3631 e487 e455 e489 e491 e493 e857 e547 e4167 e3133 e3246 e1989 e4811 e1453 e1455 e2235"/>
    <route id="route_481" edges="e1445 e1447 e99 e4946 e3512 e3495 e1361 e791 e1363 e4857 e2422 e3296 e3294 e1596 e1594 e1592 e1590 e2698"/>
    <route id="route_490" edges="e1488 e906 e904 e1711 e3460 e2933 e3281 e2012 e3491 e3512 e4330 e4787 e588 e1516 e1514 e1512 e1510 e2060"/>
    <route id="route_2" edges="e2768 e2766 e2567 e1595 e3293 e380 e4923 e4805 e283 e1134 e498 e300 e298 e296 e2306 e2318 e2316"/>
    <route id="route_12" edges="e4348 e2871 e2857 e2859 e1259 e3611 e651 e4923 e4805 e283 e2475 e1427 e2007 e1219 e1221 e3145 e412"/>
    <route id="route_54" edges="e3706 e453 e455 e489 e3401 e3612 e1260 e2860 e2858 e2872 e2870 e2868 e968 e3572 e4002 e133 e3451"/>
    <route id="route_68" edges="e4058 e3322 e920 e918 e916 e3183 e2415 e1909 e3938 e3936 e3934 e3932 e4114 e980 e843 e845 e3695"/>
    <route id="route_75" edges="e2161 e3582 e1823 e1428 e2476 e284 e4806 e2862 e22 e3124 e3256 e239 e183 e185 e2563 e2565 e2591"/>
    <route id="route_85" edges="e726 e4706 e3170 e3627 e3293 e3295 e2421 e4858 e1364 e792 e1362 e4495 e1014 e2251 e4195 e2208 e4629"/>
    <route id="route_102" edges="e2515 e2517 e1818 e1816 e1341 e1343 e671 e152 e150 e494 e492 e490 e456 e488 e486 e1620 e692"/>
    <route id="route_120" edges="e729 e731 e797 e799 e801 e1793 e1795 e687 e1800 e2198 e2079 e4389 e3970 e3968 e4420 e4351 e4353"/>
    <route id="route_130" edges="e3976 e3813 e3491 e3512 e3495 e1361 e791 e1363 e4857 e2422 e3296 e3294 e1596 e2568 e2765 e2767 e4683"/>
    <route id="route_131" edges="e1222 e1220 e2008 e1428 e2476 e284 e4806 e2862 e22 e812 e69 e547 e4167 e3133 e4715 e3197 e2816"/>
    <route id="route_133" edges="e818 e3139 e1993 e184 e240 e3440 e72 e2588 e2506 e1399 e1401 e1403 e995 e997 e3889 e325 e1038"/>