<?xml version="1.0" encoding="UTF-8"?>

<!-- generated on 2026-03-02T23:01:28.394648+05:30 by Eclipse SUMO duarouter 1.25.0
<duarouterConfiguration xmlns:xsi="http://www.w3.org/2001/XMLSchema-instance" xsi:noNamespaceSchemaLocation="http://sumo.dlr.de/xsd/duarouterConfiguration.xsd">

    <input>
        <net-file value="C:\Users\Gauravi Naik\OneDrive\Desktop\smat_corridor_v2\sumo_data\andheri.net.xml"/>
        <route-files value="C:\Users\Gauravi Naik\OneDrive\Desktop\smat_corridor_v2\sumo_data\random_trips.xml"/>
    </input>

    <output>
        <output-file value="C:\Users\Gauravi Naik\OneDrive\Desktop\smat_corridor_v2\sumo_data\routes.rou.xml"/>
    </output>

    <report>
        <no-warnings value="true"/>
        <ignore-errors value="true"/>
    </report>

</duarouterConfiguration>
-->

<routes xmlns:xsi="http://www.w3.org/2001/XMLSchema-instance" xsi:noNamespaceSchemaLocation="http://sumo.dlr.de/xsd/routes_file.xsd">
    <vehicle id="car_0" depart="0.30">
        <route edges="e3977 e3823 e1595 e3293 e3295 e2421 e4858 e1364 e792 e811 e3124 e1361"/>
    </vehicle>
    <vehicle id="car_1" depart="9.60">
        <route edges="e759 e2027 e1701 e4931 e3512 e1496 e1494 e172 e3784 e2813"/>
    </vehicle>
    <vehicle id="car_2" depart="18.00">
        <route edges="e3402 e491 e493 e857 e547 e4167 e3133 e3135 e3762"/>
    </vehicle>
    <vehicle id="car_3" depart="28.50">
        <route edges="e4193 e4890 e4896 e3247 e3206 e3204 e3202 e1466 e1052 e1666"/>
    </vehicle>
    <vehicle id="car_4" depart="37.10">
        <route edges="e4119 e3222 e317 e1187 e2101 e2897"/>
    </vehicle>
    <vehicle id="car_5" depart="45.40">
        <route edges="e3654 e3652 e3384 e855 e491 e653 e4877"/>
    </vehicle>
    <vehicle id="car_6" depart="55.20">
        <route edges="e1590 e3988 e1610 e3715 e1595 e3957 e1077 e1079 e1260 e2860 e2858 e2872 e2870 e2497 e4362"/>
    </vehicle>
    <vehicle id="car_7" depart="64.10">
        <route edges="e697 e3034 e2497 e3422 e3114 e4656 e1701"/>
    </vehicle>
    <vehicle id="car_9" depart="80.30">
        <route edges="e4096 e341 e343 e345 e347 e3611 e3402 e856 e854 e1312 e3733"/>
    </vehicle>
    <vehicle id="car_10" depart="90.90">
        <route edges="e3868 e24 e22 e3124 e3256 e239 e241 e4816 e2362 e364 e2725"/>
    </vehicle>
    <vehicle id="car_11" depart="98.00">
        <route edges="e1361 e791 e3430 e2580 e2196 e2194 e1444 e3083"/>
    </vehicle>
    <vehicle id="car_12" depart="106.70">
        <route edges="e3604 e4931 e3512 e1089 e671 e2696 e72 e2646 e1920 e2474 e2472 e2470 e2468"/>
    </vehicle>
    <vehicle id="car_13" depart="116.30">
        <route edges="e3039 e3262 e4832 e3681 e3098 e3747 e2548 e4919"/>
    </vehicle>
    <vehicle id="car_14" depart="125.80">
        <route edges="e747 e2878 e3657"/>
    </vehicle>
    <vehicle id="car_15" depart="133.80">
        <route edges="e3154 e1579 e4946 e3512 e3265 e4587 e21 e2861 e1697 e2523 e4571"/>
    </vehicle>
    <vehicle id="car_16" depart="143.40">
        <route edges="e4384 e1616 e2567 e1595 e3293 e380 e4923 e4805 e283 e285 e501 e503"/>
    </vehicle>
    <vehicle id="car_17" depart="153.00">
        <route edges="e1407 e326 e3890 e998 e996 e1404 e1402 e1400 e2505 e2343 e151 e672 e4601 e4298 e4621 e2110"/>
    </vehicle>
    <vehicle id="car_18" depart="160.20">
        <route edges="e1978 e4329 e3495 e1361 e791 e1363 e4857 e2422 e2420 e804 e802 e800 e798"/>
    </vehicle>
    <vehicle id="car_19" depart="170.60">
        <route edges="e591 e3918 e4306 e2102 e1188 e1186 e2393 e612 e1083 e1903"/>
    </vehicle>
    <vehicle id="car_20" depart="179.70">
        <route edges="e1743 e2355 e2027 e1837 e4532 e2048 e2046 e2044 e2042 e1846"/>
    </vehicle>
    <vehicle id="car_21" depart="187.80">
        <route edges="e3644 e3137 e3679 e3681 e3098 e3683 e3265 e1229"/>
    </vehicle>
    <vehicle id="car_22" depart="195.80">
        <route edges="e4747 e1366 e1364 e792 e1362 e3256 e239 e183 e1994 e3546 e4769"/>
    </vehicle>
    <vehicle id="car_23" depart="205.40">
        <route edges="e4874 e3062 e1210 e4845 e4203 e1909 e3938 e3936 e3934 e3932 e4114 e980 e843 e845 e244 e3213 e3215 e3217 e3219 e2445 e3642 e3640"/>
    </vehicle>
    <vehicle id="car_24" depart="214.40">
        <route edges="e4128 e4329 e3265 e4587 e21 e23 e612 e1797"/>
    </vehicle>
    <vehicle id="car_25" depart="222.80">
        <route edges="e136 e1218 e1216 e1214 e4821 e4473 e71 e3439 e3646"/>
    </vehicle>
    <vehicle id="car_26" depart="231.60">
        <route edges="e27 e4118 e396 e2658 e2505 e2587 e71 e3656 e1267 e372 e4628"/>
    </vehicle>
    <vehicle id="car_27" depart="240.00">
        <route edges="e69 e71 e2695 e672 e1090 e3511 e4945 e1580 e925"/>
    </vehicle>
    <vehicle id="car_28" depart="249.10">
        <route edges="e3245 e3134 e4168 e548 e2646 e4490"/>
    </vehicle>
    <vehicle id="car_29" depart="259.50">
        <route edges="e4330 e431 e1976 e1974 e4933"/>
    </vehicle>
    <vehicle id="car_30" depart="267.70">
        <route edges="e4889 e165 e1495 e1497 e2864"/>
    </vehicle>
    <vehicle id="car_31" depart="277.30">
        <route edges="e3401 e3296 e774 e1405 e1345 e2899 e2989 e3087 e2902"/>
    </vehicle>
    <vehicle id="car_32" depart="285.40">
        <route edges="e4100 e1910 e3542 e1994 e3140 e3251 e1521 e2543"/>
    </vehicle>
    <vehicle id="car_33" depart="293.80">
        <route edges="e4433 e129 e3139 e1992 e431 e1976 e1990 e4537"/>
    </vehicle>
    <vehicle id="car_34" depart="303.80">
        <route edges="e2621 e786 e614 e612 e1401 e4389 e4564 e3763"/>
    </vehicle>
    <vehicle id="car_35" depart="313.00">
        <route edges="e491 e493 e149 e151 e672 e4601 e4531 e1838 e4465"/>
    </vehicle>
    <vehicle id="car_36" depart="321.70">
        <route edges="e1127 e4688 e2601 e2082 e1402 e1400 e2505 e2587 e71 e987 e3122 e4243"/>
    </vehicle>
    <vehicle id="car_37" depart="329.10">
        <route edges="e3410 e548 e4474 e1275 e1277 e4561 e4356"/>
    </vehicle>
    <vehicle id="car_38" depart="338.90">
        <route edges="e2077 e1304 e2102 e1188 e1186 e4923 e4805 e282 e280 e569 e4078"/>
    </vehicle>
    <vehicle id="car_39" depart="347.20">
        <route edges="e4922 e2361 e4815 e242 e240 e3440 e72 e2588 e2506 e1399 e610 e3819"/>
    </vehicle>
    <vehicle id="car_40" depart="357.20">
        <route edges="e1072 e2947 e4830 e3134 e3132 e2418 e1910 e4906"/>
    </vehicle>
    <vehicle id="car_41" depart="365.40">
        <route edges="e1528 e2508 e2342 e1236 e2340 e1292 e2338 e1425 e1427 e2161 e2163 e2760 e2758 e3050 e2169"/>
    </vehicle>
    <vehicle id="car_42" depart="374.50">
        <route edges="e953 e1932 e2876 e165 e1517 e1519 e4450"/>
    </vehicle>
    <vehicle id="car_43" depart="383.70">
        <route edges="e4830 e3134 e4168 e548 e2646 e1920 e310 e2835 e1347 e192 e1352 e4385"/>
    </vehicle>
    <vehicle id="car_44" depart="392.80">
        <route edges="e4286 e4623 e3033 e4395 e4430 e3530 e3157"/>
    </vehicle>
    <vehicle id="car_45" depart="401.30">
        <route edges="e1340 e1338 e3528 e3526 e2683 e1343 e671 e2696 e72 e70 e791 e3043 e3045 e2414"/>
    </vehicle>
    <vehicle id="car_46" depart="410.80">
        <route edges="e2249 e3298 e2421 e4858 e1364 e792 e1362 e3496 e3684 e3097 e1153"/>
    </vehicle>
    <vehicle id="car_47" depart="417.90">
        <route edges="e2525 e620 e3882 e2524 e1698 e2862 e4130 e4785 e1066 e3922"/>
    </vehicle>
    <vehicle id="car_48" depart="428.30">
        <route edges="e1913 e980 e3611 e3402 e856 e457 e459 e461 e463 e465 e1095"/>
    </vehicle>
    <vehicle id="car_49" depart="436.80">
        <route edges="e4733 e81 e83 e85 e1362 e3256 e239 e1565 e1567 e4079"/>
    </vehicle>
    <vehicle id="car_50" depart="445.30">
        <route edges="e2661 e24 e22 e4588 e3266 e3511 e4945 e4044 e3517 e4545"/>
    </vehicle>
    <vehicle id="car_51" depart="453.80">
        <route edges="e1441 e1443 e2193 e2195 e2579 e3689 e3311 e3126 e219"/>
    </vehicle>
    <vehicle id="car_52" depart="464.00">
        <route edges="e4506 e4941 e2327 e490 e456 e454 e3705"/>
    </vehicle>
    <vehicle id="car_53" depart="471.50">
        <route edges="e1306 e1304 e2102 e1188 e1186 e493 e857 e71 e3439 e239 e241 e4816 e2362 e365 e2968 e4428"/>
    </vehicle>
    <vehicle id="car_54" depart="481.60">
        <route edges="e3789 e3791 e3793 e3795 e3797 e3799 e3801 e2795 e4808 e1040 e1430 e1428 e2476 e284 e4806 e2862 e22 e3124 e3256 e972 e970"/>
    </vehicle>
    <vehicle id="car_55" depart="490.80">
        <route edges="e2367 e2894 e3041 e3123 e21 e2861 e4805 e283 e2475 e1427 e1429 e1039 e4807"/>
    </vehicle>
    <vehicle id="car_56" depart="498.00">
        <route edges="e3952 e3950 e3948 e3946 e1376 e3378 e4168 e548 e2588 e2342 e1236 e2340"/>
    </vehicle>
    <vehicle id="car_57" depart="507.80">
        <route edges="e2115 e1929 e4716 e3134 e4168 e548 e70"/>
    </vehicle>
    <vehicle id="car_58" depart="515.90">
        <route edges="e815 e3139 e1993 e184 e240 e3440 e3656 e928 e708 e706 e704 e2329 e4171 e2298"/>
    </vehicle>
    <vehicle id="car_59" depart="525.90">
        <route edges="e2755 e2006 e690 e455 e489 e2328 e4942 e1364 e792 e1362 e4242 e428 e1978"/>
    </vehicle>
    <vehicle id="car_61" depart="544.10">
        <route edges="e2970 e4235 e4965 e3081"/>
    </vehicle>
    <vehicle id="car_62" depart="552.80">
        <route edges="e1600 e117 e1371 e3134 e4168 e548 e858 e494 e1185 e2100"/>
    </vehicle>
    <vehicle id="car_63" depart="560.70">
        <route edges="e3484 e4912 e3494 e3512 e94 e92 e90 e88"/>
    </vehicle>
    <vehicle id="car_64" depart="569.40">
        <route edges="e1067 e1368 e842 e840 e838 e3400 e4370 e4368 e264 e3469 e3471 e3473"/>
    </vehicle>
    <vehicle id="car_65" depart="579.20">
        <route edges="e4595 e4728 e3652 e3384 e855 e688 e2569"/>
    </vehicle>
    <vehicle id="car_67" depart="595.80">
        <route edges="e4065 e2926 e2924 e371 e2252 e1013 e2648 e72 e858 e494 e492 e490 e456 e454 e3705 e3069 e3071 e3073"/>
    </vehicle>
    <vehicle id="car_68" depart="605.90">
        <route edges="e3587 e1366 e1364 e792 e1362 e3496 e3511 e3492 e4067 e4169 e3666 e2141"/>
    </vehicle>
    <vehicle id="car_69" depart="614.00">
        <route edges="e4924 e493 e149 e151 e672 e1090 e3685 e944"/>
    </vehicle>
    <vehicle id="car_70" depart="623.50">
        <route edges="e2330 e703 e705 e707 e927 e3655 e72 e70 e791 e3043 e3045 e4379"/>
    </vehicle>
    <vehicle id="car_71" depart="632.60">
        <route edges="e1884 e1882 e2552 e4788 e430 e964 e3909"/>
    </vehicle>
    <vehicle id="car_72" depart="641.60">
        <route edges="e3937 e3543 e4423 e2499 e763 e965"/>
    </vehicle>
    <vehicle id="car_73" depart="649.80">
        <route edges="e4716 e3134 e4246 e15 e3250"/>
    </vehicle>
    <vehicle id="car_74" depart="658.30">
        <route edges="e2022 e1711 e1713 e1715 e2461 e2498 e2869 e4347 e3158 e3156 e246 e244 e3213 e3215 e3217 e3219 e2445 e2447 e2449 e4026 e4024 e4022 e4020"/>
    </vehicle>
    <vehicle id="car_76" depart="676.40">
        <route edges="e1795 e775 e4942 e1364 e792 e1362 e3496 e1496 e4284 e4685 e4717"/>
    </vehicle>
    <vehicle id="car_77" depart="686.30">
        <route edges="e4733 e81 e83 e85 e1362 e1360 e1358 e2259 e2261"/>
    </vehicle>
    <vehicle id="car_78" depart="693.60">
        <route edges="e4515 e4517 e4519 e4873 e1838 e4655 e3113 e3115 e3338"/>
    </vehicle>
    <vehicle id="car_79" depart="702.30">
        <route edges="e1320 e1019 e3435 e853 e855 e491 e4923 e4805 e282 e1739 e2650 e530"/>
    </vehicle>
    <vehicle id="car_80" depart="711.30">
        <route edges="e1145 e4306 e2102 e1188 e1186 e493 e857 e71 e73 e4361"/>
    </vehicle>
    <vehicle id="car_81" depart="720.50">
        <route edges="e4551 e1515 e4456 e3199 e4716 e3134 e4168 e548 e70 e791 e1363 e4857 e2422 e3296 e3294 e3628 e3717 e4703 e3170"/>
    </vehicle>
    <vehicle id="car_82" depart="730.80">
        <route edges="e53 e530 e279 e4965 e3881 e4112 e703 e705 e707 e927 e3201 e3203 e3205 e3248 e4530 e4479 e4457"/>
    </vehicle>
    <vehicle id="car_83" depart="739.30">
        <route edges="e1080 e2419 e2421 e4858 e1364 e792 e69 e547 e3409 e4164"/>
    </vehicle>
    <vehicle id="car_84" depart="748.50">
        <route edges="e4326 e4865 e3199 e4716 e1373 e3378 e3133"/>
    </vehicle>
    <vehicle id="car_85" depart="757.10">
        <route edges="e1506 e1807 e1117 e1518 e4284 e1883 e1885 e3671"/>
    </vehicle>
    <vehicle id="car_86" depart="766.30">
        <route edges="e1878 e4457 e1931 e955 e957 e2665 e373 e2597"/>
    </vehicle>
    <vehicle id="car_87" depart="773.70">
        <route edges="e2388 e2386 e820 e4946 e3512 e3265 e4587 e217 e3125 e544"/>
    </vehicle>
    <vehicle id="car_88" depart="782.70">
        <route edges="e3839 e3507 e7 e4137 e3584"/>
    </vehicle>
    <vehicle id="car_89" depart="791.50">
        <route edges="e4248 e4813 e3875 e4945 e100 e1581"/>
    </vehicle>
    <vehicle id="car_90" depart="801.50">
        <route edges="e2906 e3999 e87 e89 e91 e93 e3265 e4587 e21 e23 e2394"/>
    </vehicle>
    <vehicle id="car_91" depart="810.90">
        <route edges="e885 e11 e13 e1013 e2648 e72 e2646 e3690 e2580 e2196 e896 e4976 e1761"/>
    </vehicle>
    <vehicle id="car_92" depart="819.10">
        <route edges="e3199 e4716 e3134 e3376 e3558 e3123 e21 e2861 e4805 e283 e1134 e2160 e4584"/>
    </vehicle>
    <vehicle id="car_93" depart="827.70">
        <route edges="e2512 e630 e3511 e4932 e1702 e4655"/>
    </vehicle>
    <vehicle id="car_94" depart="835.90">
        <route edges="e4908 e184 e240 e3440 e72 e70 e791 e3043 e4765"/>
    </vehicle>
    <vehicle id="car_95" depart="845.90">
        <route edges="e4634 e2358 e2500 e1658 e4774 e3439"/>
    </vehicle>
    <vehicle id="car_96" depart="853.80">
        <route edges="e4381 e96 e3495 e4495 e1014 e4833"/>
    </vehicle>
    <vehicle id="car_98" depart="871.60">
        <route edges="e4897 e4946 e3512 e1089 e671 e2696 e3656 e3831"/>
    </vehicle>
    <vehicle id="car_99" depart="880.90">
        <route edges="e4350 e198 e196 e4524 e607 e2996 e1685 e3860 e896 e894 e1960 e3038 e3084"/>
    </vehicle>
    <vehicle id="car_100" depart="889.80">
        <route edges="e216 e2558 e1013 e1757 e874 e872 e961 e4056"/>
    </vehicle>
    <vehicle id="car_101" depart="897.90">
        <route edges="e4730 e4904 e1188 e4766 e3044 e792 e1362 e4495 e1014 e3011"/>
    </vehicle>
    <vehicle id="car_102" depart="906.70">
        <route edges="e4137 e4603 e1209 e2983 e2985 e2821 e3413 e3415 e674 e152 e2344 e2506 e1399 e1329 e4591"/>
    </vehicle>
    <vehicle id="car_103" depart="916.90">
        <route edges="e2517 e1818 e1816 e1341 e91 e93 e3495 e3557 e3270"/>
    </vehicle>
    <vehicle id="car_104" depart="925.40">
        <route edges="e3013 e2461 e2498 e2869 e4347 e3158 e3156 e246 e244 e3213 e3215 e3217 e3219 e1044 e1042 e1603 e2242"/>
    </vehicle>
    <vehicle id="car_105" depart="933.50">
        <route edges="e3910 e3142 e3541 e1909 e3938 e3936 e3934 e3932 e4114 e980 e843 e845 e244 e3213 e3215 e3217 e3219 e2445 e2447 e2449 e4026 e4024 e4022 e4020"/>
    </vehicle>
    <vehicle id="car_106" depart="942.70">
        <route edges="e3660 e4959 e2378 e2115 e1929 e3372 e1972 e634 e632 e65 e304"/>
    </vehicle>
    <vehicle id="car_107" depart="952.40">
        <route edges="e4449 e1520 e1119"/>
    </vehicle>
    <vehicle id="car_108" depart="961.40">
        <route edges="e1390 e2579 e2581 e151 e672 e3806 e943"/>
    </vehicle>
    <vehicle id="car_109" depart="969.70">
        <route edges="e2836 e309 e1919 e3690 e2580 e2196 e896 e894 e1960 e3038 e3084"/>
    </vehicle>
    <vehicle id="car_110" depart="979.30">
        <route edges="e3745 e3150 e3265 e4587 e21 e23 e612 e1401 e2081 e2083 e4777 e4779"/>
    </vehicle>
    <vehicle id="car_111" depart="988.30">
        <route edges="e1246 e2655 e1291 e2339 e1235 e2341 e2587 e547 e3409 e665 e3399 e837 e839 e841"/>
    </vehicle>
    <vehicle id="car_113" depart="1005.60">
        <route edges="e2101 e4328 e1190 e1188 e318 e316"/>
    </vehicle>
    <vehicle id="car_114" depart="1014.10">
        <route edges="e3472 e3470 e263 e265 e630 e3511 e4932 e1702 e2028 e3251 e3740 e43"/>
    </vehicle>
    <vehicle id="car_115" depart="1022.60">
        <route edges="e825 e827 e3779 e824 e822 e820 e4946 e4255 e2589 e3509 e3808"/>
    </vehicle>
    <vehicle id="car_116" depart="1031.20">
        <route edges="e2940 e4508 e2590 e4256 e4795 e2383 e820"/>
    </vehicle>
    <vehicle id="car_117" depart="1040.40">
        <route edges="e3706 e453 e455 e489 e491 e493 e149 e2344"/>
    </vehicle>
    <vehicle id="car_119" depart="1058.50">
        <route edges="e524 e3150 e3265 e4587 e21 e23 e612 e4313 e4523 e195 e4533"/>
    </vehicle>
    <vehicle id="car_120" depart="1068.60">
        <route edges="e4814 e2399 e962 e870 e3028"/>
    </vehicle>
    <vehicle id="car_122" depart="1084.60">
        <route edges="e1541 e3401 e3612 e1260 e2860 e2858 e2872 e2870 e2497 e2462 e1717"/>
    </vehicle>
    <vehicle id="car_124" depart="1103.70">
        <route edges="e821 e4527 e4529 e3134 e3376 e3558 e2228 e2556"/>
    </vehicle>
    <vehicle id="car_125" depart="1111.20">
        <route edges="e1238 e2341 e2587 e71 e3439 e239 e183 e2592 e4010 e2726 e3670 e3668"/>
    </vehicle>
    <vehicle id="car_126" depart="1120.70">
        <route edges="e2514 e1488 e906 e904 e1711 e1713 e1715 e2461 e2498 e2869 e4347 e3158 e3156 e246 e244 e3213 e3215 e3217 e3219 e2439 e510 e508 e506"/>
    </vehicle>
    <vehicle id="car_127" depart="1130.50">
        <route edges="e672 e4663 e2511 e3557 e3375 e3377"/>
    </vehicle>
    <vehicle id="car_128" depart="1138.70">
        <route edges="e4165 e4824 e2350 e870 e868 e1496 e4284 e4685 e2425 e3661 e3535"/>
    </vehicle>
    <vehicle id="car_130" depart="1157.20">
        <route edges="e70 e1362 e3256 e972 e970 e968 e3013"/>
    </vehicle>
    <vehicle id="car_131" depart="1164.90">
        <route edges="e652 e2421 e4858 e1364 e792 e69 e71 e2695 e672 e1344"/>
    </vehicle>
    <vehicle id="car_132" depart="1173.90">
        <route edges="e586 e4529 e3134 e3376 e3558 e3123 e21 e2861 e4924"/>
    </vehicle>
    <vehicle id="car_133" depart="1182.80">
        <route edges="e2508 e2343 e151 e672 e1090 e3511 e4945 e1008 e3514"/>
    </vehicle>
    <vehicle id="car_134" depart="1193.00">
        <route edges="e4530 e4479 e4457 e2334 e4537"/>
    </vehicle>
    <vehicle id="car_136" depart="1210.40">
        <route edges="e4509 e1020 e1319 e853 e855 e2328 e4825 e79"/>
    </vehicle>
    <vehicle id="car_137" depart="1219.30">
        <route edges="e3943 e129 e2461 e2498 e2869 e2871 e2857 e2859 e1259 e3611 e3402 e2328"/>
    </vehicle>
    <vehicle id="car_138" depart="1227.00">
        <route edges="e249 e3805 e671 e2696 e72 e2646 e1920 e311"/>
    </vehicle>
    <vehicle id="car_139" depart="1236.90">
        <route edges="e1654 e3595 e1260 e2860 e2858 e2872 e2870 e2497 e2462 e3598"/>
    </vehicle>
    <vehicle id="car_140" depart="1245.70">
        <route edges="e1931 e3136 e3246 e2065 e4896"/>
    </vehicle>
    <vehicle id="car_141" depart="1254.90">
        <route edges="e3184 e2012 e3491 e3512 e3495 e3557 e4307"/>
    </vehicle>
    <vehicle id="car_142" depart="1262.70">
        <route edges="e2184 e1527 e1203"/>
    </vehicle>
    <vehicle id="car_143" depart="1271.80">
        <route edges="e1765 e2993 e2899 e2901 e3088 e2990"/>
    </vehicle>
    <vehicle id="car_144" depart="1281.10">
        <route edges="e3360 e2698 e1616 e2765 e2767 e4682 e2777 e4783 e2668 e2780 e2778"/>
    </vehicle>
    <vehicle id="car_145" depart="1290.00">
        <route edges="e719 e308 e4588 e3266 e1496 e1494 e172 e3785"/>
    </vehicle>
    <vehicle id="car_146" depart="1298.80">
        <route edges="e4099 e2437 e3131 e3133 e1372 e118 e1599"/>
    </vehicle>
    <vehicle id="car_147" depart="1308.30">
        <route edges="e2744 e928 e708 e706 e704 e2329 e4171"/>
    </vehicle>
    <vehicle id="car_148" depart="1316.70">
        <route edges="e2545 e129 e3139 e1993 e184 e240 e3440 e3656 e929 e2964 e2962 e4198"/>
    </vehicle>
    <vehicle id="car_149" depart="1325.30">
        <route edges="e2651 e1305 e1307 e1309 e4749 e4511 e1385 e4513 e4801"/>
    </vehicle>
    <vehicle id="car_150" depart="1335.10">
        <route edges="e2122 e2120 e2118 e956 e954 e952 e434 e432 e430 e4964 e3026"/>
    </vehicle>
    <vehicle id="car_151" depart="1344.00">
        <route edges="e251 e1602 e1118 e1116 e1114 e1112 e1110 e1108 e1106 e1507"/>
    </vehicle>
    <vehicle id="car_152" depart="1352.80">
        <route edges="e1072 e2947 e4830 e3134 e4168 e548 e4474 e1275 e1277 e3759 e1066 e4877"/>
    </vehicle>
    <vehicle id="car_153" depart="1360.00">
        <route edges="e2876 e4890 e4896 e3134 e3132 e3336 e2555"/>
    </vehicle>
    <vehicle id="car_154" depart="1370.70">
        <route edges="e4481 e231 e3044 e792 e1771 e2344"/>
    </vehicle>
    <vehicle id="car_155" depart="1379.20">
        <route edges="e21 e4130 e309 e3310 e315 e4393 e3294 e1596 e1594 e1592 e1633 e601 e2477 e2479"/>
    </vehicle>
    <vehicle id="car_156" depart="1387.50">
        <route edges="e2968 e4428 e965 e967 e969 e971 e3440 e72 e2646 e3690 e2580 e1388 e1386 e1384 e3911"/>
    </vehicle>
    <vehicle id="car_157" depart="1396.90">
        <route edges="e4011 e2862 e22 e3124 e3042 e2418"/>
    </vehicle>
    <vehicle id="car_158" depart="1404.70">
        <route edges="e277 e279 e281 e4806 e4924 e652 e2421 e1547 e1549 e2467 e2469"/>
    </vehicle>
    <vehicle id="car_159" depart="1413.50">
        <route edges="e4821 e4473 e547 e3409 e1759 e275 e208"/>
    </vehicle>
    <vehicle id="car_160" depart="1423.70">
        <route edges="e4862 e4200 e2504 e4741 e1658 e4774 e72 e70 e791 e2508"/>
    </vehicle>
    <vehicle id="car_161" depart="1432.80">
        <route edges="e4012 e3498 e4821 e4473 e71 e3439 e4315"/>
    </vehicle>
    <vehicle id="car_162" depart="1441.20">
        <route edges="e4214 e4212 e4210 e3518 e4796 e3512 e3495 e1360"/>
    </vehicle>
    <vehicle id="car_163" depart="1450.50">
        <route edges="e4803 e1366 e1364 e3430 e2580 e2196 e2194 e1095"/>
    </vehicle>
    <vehicle id="car_164" depart="1459.10">
        <route edges="e2126 e2058 e3137 e3679 e3681 e3098 e3683 e94 e92 e4721 e4593 e4648"/>
    </vehicle>
    <vehicle id="car_165" depart="1466.90">
        <route edges="e3867 e1284 e614 e2394 e378 e4943"/>
    </vehicle>
    <vehicle id="car_166" depart="1475.70">
        <route edges="e2125 e1886 e1884 e4283 e166 e2875 e3197"/>
    </vehicle>
    <vehicle id="car_167" depart="1484.70">
        <route edges="e4131 e538 e2873 e4931 e3512 e3265 e4587 e21 e2861 e4805 e282 e280"/>
    </vehicle>
    <vehicle id="car_168" depart="1494.20">
        <route edges="e3962 e315 e3367 e4923 e4805 e283 e2475 e1427 e1429 e1039 e2033 e2035"/>
    </vehicle>
    <vehicle id="car_169" depart="1502.30">
        <route edges="e539 e2421 e4858 e1364 e792 e1362 e4495 e1014 e2251 e372 e2118"/>
    </vehicle>
    <vehicle id="car_170" depart="1511.90">
        <route edges="e3956 e4958 e3645 e239 e183 e1994 e3140 e45 e2013 e901 e1711"/>
    </vehicle>
    <vehicle id="car_171" depart="1520.90">
        <route edges="e3835 e119 e121 e123 e3832 e928 e708 e706 e704 e4111 e2297 e2299 e2301 e3263 e4584 e4582 e4183"/>
    </vehicle>
    <vehicle id="car_172" depart="1530.00">
        <route edges="e3239 e3241 e3243 e4849 e2421 e4858 e1364 e792 e69 e547 e4167 e3133 e3246 e2064 e953"/>
    </vehicle>
    <vehicle id="car_173" depart="1538.70">
        <route edges="e2142 e3665 e4170 e4068 e3491 e3876 e964"/>
    </vehicle>
    <vehicle id="car_175" depart="1557.00">
        <route edges="e596 e143 e145 e147 e149 e151 e672 e1090 e3511 e4945 e100 e1448 e4162"/>
    </vehicle>
    <vehicle id="car_176" depart="1565.60">
        <route edges="e3160 e3158 e3156 e246 e244 e3213 e3215 e3217 e3219 e2439 e3562 e3560"/>
    </vehicle>
    <vehicle id="car_177" depart="1575.00">
        <route edges="e216 e2558 e1013 e2648 e72 e2588 e2506 e1399 e1401 e2081 e2602 e4687 e1129 e1131 e33 e35"/>
    </vehicle>
    <vehicle id="car_178" depart="1583.20">
        <route edges="e4538 e3245 e3134 e3132 e3336 e4879 e4475 e4477 e1803"/>
    </vehicle>
    <vehicle id="car_179" depart="1592.60">
        <route edges="e816 e2785 e2751 e3139 e1993 e184 e240 e3255 e3123 e21 e2861 e4805 e283 e1134 e1425"/>
    </vehicle>
    <vehicle id="car_180" depart="1601.00">
        <route edges="e4664 e4601 e4270 e1210 e4845 e4824"/>
    </vehicle>
    <vehicle id="car_181" depart="1610.40">
        <route edges="e1851 e1853 e1855 e2067 e2069 e2071 e2788 e2128 e206 e204 e543 e545 e2646"/>
    </vehicle>
    <vehicle id="car_183" depart="1628.10">
        <route edges="e1143 e3875 e3493 e4911"/>
    </vehicle>
    <vehicle id="car_184" depart="1637.00">
        <route edges="e2251 e2666 e958 e956 e1932 e1930 e2877 e749 e2115"/>
    </vehicle>
    <vehicle id="car_185" depart="1646.30">
        <route edges="e2122 e2120 e371 e2252 e1013 e4496 e2228 e4100 e3938 e3936"/>
    </vehicle>
    <vehicle id="car_186" depart="1654.00">
        <route edges="e2188 e4248 e242 e240 e972 e978 e3033 e342 e2495"/>
    </vehicle>
    <vehicle id="car_187" depart="1663.70">
        <route edges="e1305 e1307 e1309 e1311 e853 e855 e491 e2393 e613 e4697"/>
    </vehicle>
    <vehicle id="car_188" depart="1672.90">
        <route edges="e3595 e979 e981 e3929 e3931 e3933 e3935 e3937 e2417 e3131 e3133 e3247 e3207"/>
    </vehicle>
    <vehicle id="car_189" depart="1680.80">
        <route edges="e1808 e4651 e971 e4339 e3131 e3133 e3246 e2064 e2981"/>
    </vehicle>
    <vehicle id="car_190" depart="1689.30">
        <route edges="e1117 e4150 e1658 e4774 e72 e546 e3127 e4473"/>
    </vehicle>
    <vehicle id="car_191" depart="1699.50">
        <route edges="e4585 e4722 e91 e93 e4330 e431 e1976 e1990 e1395 e4798"/>
    </vehicle>
    <vehicle id="car_192" depart="1707.10">
        <route edges="e4109 e425 e2589 e3140 e4566"/>
    </vehicle>
    <vehicle id="car_193" depart="1715.60">
        <route edges="e4868 e4912 e3494 e3876 e250 e240 e238 e1657"/>
    </vehicle>
    <vehicle id="car_195" depart="1733.60">
        <route edges="e251 e4272 e4655 e3112"/>
    </vehicle>
    <vehicle id="car_196" depart="1744.00">
        <route edges="e1343 e671 e152 e150 e494 e492 e856 e3383 e563 e3815"/>
    </vehicle>
    <vehicle id="car_197" depart="1753.00">
        <route edges="e4369 e666 e3410 e548 e2646 e3690 e658 e3194 e1766 e3865"/>
    </vehicle>
    <vehicle id="car_198" depart="1761.70">
        <route edges="e586 e3679 e3681 e3098 e3683 e3511 e4932 e3445 e161 e3507"/>
    </vehicle>
    <vehicle id="car_199" depart="1770.50">
        <route edges="e122 e3833 e4267 e2842 e2840 e3990 e4168 e548 e70 e791 e1363 e4857 e2422 e3296 e3294 e1596 e2568 e1615 e4383"/>
    </vehicle>
    <vehicle id="car_200" depart="1778.00">
        <route edges="e3639 e3641 e2446 e3220 e3218 e3216 e3214 e243 e539 e2421 e4858 e1364 e792 e1362 e3496 e4330 e2706 e2704 e4300"/>
    </vehicle>
    <vehicle id="car_201" depart="1787.60">
        <route edges="e1075 e1077 e1079 e1260 e2860 e2858 e2872 e2870 e2497 e2462 e760 e1752"/>
    </vehicle>
    <vehicle id="car_202" depart="1796.90">
        <route edges="e4060 e117 e1371 e3134 e4168 e548 e858 e494 e1184 e596"/>
    </vehicle>
    <vehicle id="car_203" depart="1804.70">
        <route edges="e3440 e2647 e4496 e3496 e629"/>
    </vehicle>
    <vehicle id="car_204" depart="1814.70">
        <route edges="e4378 e3030 e4633 e4609 e4874 e4520 e4518 e4648 e3811 e3526"/>
    </vehicle>
    <vehicle id="car_205" depart="1822.60">
        <route edges="e3666 e2141 e3421 e2498 e2869 e2871 e2857 e2859 e1259 e3611 e541 e1187 e3017 e1145 e3917"/>
    </vehicle>
    <vehicle id="car_206" depart="1832.10">
        <route edges="e4674 e2671 e1675 e1677 e453 e455 e489 e491 e4923 e4805 e282 e3768 e4930 e570"/>
    </vehicle>
    <vehicle id="car_207" depart="1841.70">
        <route edges="e349 e246 e539 e2421 e4858 e1364 e792 e69 e547 e4167 e3133 e3135 e955 e957 e2763"/>
    </vehicle>
    <vehicle id="car_208" depart="1849.50">
        <route edges="e592 e2102 e1188 e1186 e493 e857 e547 e4167 e3133 e4829 e4257"/>
    </vehicle>
    <vehicle id="car_209" depart="1857.90">
        <route edges="e3759 e1066 e654 e652 e540 e245 e3155 e3157"/>
    </vehicle>
    <vehicle id="car_210" depart="1867.80">
        <route edges="e4767 e4308 e3558 e3496 e3511 e4932 e2874"/>
    </vehicle>
    <vehicle id="car_211" depart="1875.60">
        <route edges="e4841 e256 e4256 e4945 e100 e3851 e3853"/>
    </vehicle>
    <vehicle id="car_212" depart="1885.80">
        <route edges="e4341 e3053 e4716 e3134 e4168 e548 e2646 e3690 e2580 e1388 e1386 e4512"/>
    </vehicle>
    <vehicle id="car_213" depart="1894.70">
        <route edges="e1199 e2122 e2120 e2118 e956 e1932 e2876 e165 e1517"/>
    </vehicle>
    <vehicle id="car_214" depart="1902.30">
        <route edges="e303 e2690 e428 e2442 e4109 e425"/>
    </vehicle>
    <vehicle id="car_216" depart="1920.90">
        <route edges="e836 e834 e3137 e3679 e3681 e3098 e3683 e3511 e4932 e2874 e536 e1121"/>
    </vehicle>
    <vehicle id="car_217" depart="1930.10">
        <route edges="e3011 e2498 e2869 e4347 e3158 e3156 e246 e244 e3213 e3215 e3217 e3219 e1045 e353 e1047 e722 e505 e507"/>
    </vehicle>
    <vehicle id="car_219" depart="1947.70">
        <route edges="e4730 e4728 e3652 e3384 e855 e490 e456 e689 e691 e693 e3712"/>
    </vehicle>
    <vehicle id="car_220" depart="1955.60">
        <route edges="e3524 e4897 e100 e3851 e4707 e2910 e3019 e4237 e2711"/>
    </vehicle>
    <vehicle id="car_221" depart="1964.90">
        <route edges="e4540 e4241 e4495 e1014 e4957 e3954"/>
    </vehicle>
    <vehicle id="car_222" depart="1973.40">
        <route edges="e4513 e1287 e611 e2394 e3368 e3221 e3737"/>