<?xml version="1.0" encoding="UTF-8"?>
<configuration>
    <input>
        <net-file value="andheri.net.xml"/>
        <route-files value="routes.rou.xml"/>
        <additional-files value="vehicle_types.xml"/>
    </input>
    <time>
        <begin value="0"/>
        <end value="3600"/>
    </time>
    <gui_only>
        <start value="true"/>
    </gui_only>
</configuration>
